//**************************************************************
//*   Generic PDK Resistor models                       
//*                           
//**************************************************************

simulator lang=spectre
library gpdk045
//  **********************************************************************
//  **********************************************************************
//        Model name      structure                 
//        -----------------------------------------
//        resnwsti	   N-well Resistor under STI
//        resnwoxide	   N-well Resistor under Oxide
//        ressndiff	   N+ Diffused Resistor (salicide)
//        resspdiff	   P+ Diffused Resistor (salicide)
//        ressnpoly	   N+ Poly Resistor (salicide)
//        ressppoly	   P+ Poly Resistor (salicide)
//        resnsndiff	   N+ Diffused Resistor (w/o salicide)
//        resnspdiff	   P+ Diffused Resistor (w/o salicide)
//        resnsnpoly	   N+ Poly Resistor (w/o salicide)
//        resnsppoly	   P+ Poly Resistor (w/o salicide)
//        resm1            Metal 1 Resistor
//        resm2            Metal 2 Resistor
//        resm3            Metal 3 Resistor
//        resm4            Metal 4 Resistor
//        resm5            Metal 5 Resistor
//        resm6            Metal 6 Resistor
//        resm7            Metal 7 Resistor
//        resm8            Metal 8 Resistor
//        resm9            Metal 9 Resistor
//        resm10           Metal10 Resistor
//        resm11	   Metal11 Resistor
//        resnwsti_m       NW diff(under STI)
//        resnwoxide_m     NW diff(under OD)
//        ressndiff_m      N+diff w/i silicide 
//        resspdiff_m      P+diff w/i silicide
//        ressnpoly_dis    N+Poly w/i silicide
//        ressppoly_dis    P+Poly w/i silicide
//        resnsndiff_m     N+diff w/o silicide
//        resnspdiff_m     P+diff w/o silicide
//        resnsnpoly_dis   N+Poly w/o silicide
//        resnsppoly_dis   P+Poly w/o silicide
//        resm1_m          3 terminal  Metal 1 Resistor    
//        resm2_m          3 terminal  Metal 2 Resistor
//        resm3_m          3 terminal  Metal 3 Resistor
//        resm4_m          3 terminal  Metal 4 Resistor
//        resm5_m          3 terminal  Metal 5 Resistor
//        resm6_m          3 terminal  Metal 6 Resistor
//        resm7_m          3 terminal  Metal 7 Resistor
//        resm8_m          3 terminal  Metal 8 Resistor
//        resm9_m          3 terminal  Metal 9 Resistor
//        resm10_m         3 terminal  Metal10 Resistor
//        resm11_m	   3 terminal  Metal11 Resistor
//        ---------------------------------------

section tt_res
parameters     r_resnwsti         =  1e3          
parameters     r_resnwoxide	  =  450
parameters     r_ressndiff	  =  18
parameters     r_dxw_ressndiff    =  0
parameters     r_resspdiff	  =  15
parameters     r_dxw_resspdiff    =  0
parameters     r_ressnpoly	  =  15
parameters     r_dxw_ressnpoly    =  0             
parameters     r_ressppoly	  =  15
parameters     r_dxw_ressppoly    =  0            
parameters     r_resnsndiff	  =  100
parameters     r_rend_resnsndiff  =  8.46e-6     
parameters     r_dxl_resnsndiff   =  0
parameters     r_dxw_resnsndiff   =  0            
parameters     r_resnspdiff	  =  200 
parameters     r_rend_resnspdiff  =  2.95e-5     
parameters     r_dxl_resnspdiff   =  0   
parameters     r_dxw_resnspdiff   =  0            
parameters     r_resnsnpoly	  =  200
parameters     r_rend_resnsnpoly  =  1.44e-5   
parameters     r_dxl_resnsnpoly   =  0        
parameters     r_dxw_resnsnpoly   =  0            
parameters     r_resnsppoly	  =  600
parameters     r_rend_resnsppoly  =  7.015e-6     
parameters     r_dxl_resnsppoly   =  0  
parameters     r_dxw_resnsppoly   =  0          
parameters     r_resm1            =  0.0736
parameters     r_resm2            =  0.0604 
parameters     r_resm3            =  0.0604 
parameters     r_resm4            =  0.0604 
parameters     r_resm5            =  0.0604 
parameters     r_resm6            =  0.0604
parameters     r_resm7            =  0.0604
parameters     r_resm8            =  0.0214
parameters     r_resm9            =  0.0214 
parameters     r_resm10           =  0.0214 
parameters     r_resm11	          =  0.021 
include "gpdk045_resistor.scs" section=res
endsection tt_res


section ss_res
parameters     r_resnwsti                =  1e3  * 1.20      
parameters     r_resnwoxide	         =  450 * 1.20
parameters     r_ressndiff	         =  18 * 1.20
parameters     r_dxw_ressndiff           =  0 + 0.015u
parameters     r_resspdiff	         =  15* 1.20
parameters     r_dxw_resspdiff           =  0+ 0.015u
parameters     r_ressnpoly	         =  15* 1.20
parameters     r_dxw_ressnpoly           =  0    + 0.009u         
parameters     r_ressppoly	         =  15* 1.20
parameters     r_dxw_ressppoly           =         0   + 0.012u         
parameters     r_resnsndiff	         =  100* 1.15
parameters     r_rend_resnsndiff         =  8.46e-6 * 1.90  
parameters     r_dxl_resnsndiff          =  0+ 0.0u
parameters     r_dxw_resnsndiff          =  0  + 0.040u           
parameters     r_resnspdiff	         =  200  * 1.25
parameters     r_rend_resnspdiff         =  2.95e-5    * 1.60  
parameters     r_dxl_resnspdiff          =  0   + 0.0u
parameters     r_dxw_resnspdiff          =  0  + 0.022u          
parameters     r_resnsnpoly	         =  200* 1.15
parameters     r_rend_resnsnpoly         =  1.44e-5   * 1.90 
parameters     r_dxl_resnsnpoly          =  0  + 0.0u       
parameters     r_dxw_resnsnpoly          =  0  + 0.032u          
parameters     r_resnsppoly	         =  600 * 1.15
parameters     r_rend_resnsppoly         =  7.015e-6     * 1.60 
parameters     r_dxl_resnsppoly          =  0  + 0.0u
parameters     r_dxw_resnsppoly          =  0 + 0.035u         
parameters     r_resm1                   =  0.0736  * 1.20
parameters     r_resm2                   =  0.0604  * 1.20
parameters     r_resm3                   =  0.0604  * 1.20 
parameters     r_resm4                   =  0.0604  * 1.20 
parameters     r_resm5                   =  0.0604  * 1.20 
parameters     r_resm6                   =  0.0604  * 1.20
parameters     r_resm7                   =  0.0604  * 1.20
parameters     r_resm8                   =  0.0214  * 1.20
parameters     r_resm9                   =  0.0214  * 1.20
parameters     r_resm10                  =  0.0214  * 1.20 
parameters     r_resm11	                 =  0.021   * 1.20 
include "gpdk045_resistor.scs" section=res
endsection ss_res



section ff_res
parameters     r_resnwsti         =  1e3  * 0.8      
parameters     r_resnwoxide	  =  450 * 0.8 
parameters     r_ressndiff	  =  18 * 0.8 
parameters     r_dxw_ressndiff    =  0 - 0.015u
parameters     r_resspdiff	  =  15* 0.8 
parameters     r_dxw_resspdiff    =  0 - 0.015u
parameters     r_ressnpoly	  =  15* 0.8 
parameters     r_dxw_ressnpoly    =  0 - 0.009u         
parameters     r_ressppoly	  =  15*0.8 
parameters     r_dxw_ressppoly    =  0  - 0.012u         
parameters     r_resnsndiff	  =  100* 0.85 
parameters     r_rend_resnsndiff  =  8.46e-6 * 0.1  
parameters     r_dxl_resnsndiff   =  0
parameters     r_dxw_resnsndiff   =  0  - 0.040u           
parameters     r_resnspdiff	  =  200  * 0.75
parameters     r_rend_resnspdiff  =  2.95e-5    * 0.4  
parameters     r_dxl_resnspdiff   =  0   + 0.0u
parameters     r_dxw_resnspdiff   =  0  - 0.022u          
parameters     r_resnsnpoly	  =  200* 0.85
parameters     r_rend_resnsnpoly  =  1.44e-5   *0.1 
parameters     r_dxl_resnsnpoly   =  0  + 0.0u       
parameters     r_dxw_resnsnpoly   =  0  - 0.032u          
parameters     r_resnsppoly	  =  600 *0.85
parameters     r_rend_resnsppoly  =  7.015e-6     * 0.4
parameters     r_dxl_resnsppoly   =  0  + 0.0u
parameters     r_dxw_resnsppoly   =  0 - 0.035u         
parameters     r_resm1            =  0.0736  * 0.8
parameters     r_resm2            =  0.0604  * 0.8
parameters     r_resm3            =  0.0604  * 0.8
parameters     r_resm4            =  0.0604  * 0.8 
parameters     r_resm5            =  0.0604  * 0.8      
parameters     r_resm6            =  0.0604  * 0.8     
parameters     r_resm7            =  0.0604  * 0.8     
parameters     r_resm8            =  0.0214  * 0.8     
parameters     r_resm9            =  0.0214  * 0.8
parameters     r_resm10           =  0.0214  * 0.8 
parameters     r_resm11	          =  0.021   * 0.8 
include "gpdk045_resistor.scs" section=res
endsection ff_res


section mc_res
include "gpdk045_resistor.scs" section=stat_res
parameters    par_r_resnwsti             =    var_r_resnwsti      
parameters    par_r_resnwoxide           =    var_r_resnwoxide    
parameters    par_r_ressndiff            =    var_r_ressndiff     
parameters    par_dxw_ressndiff          =    var_dxw_ressndiff   
parameters    par_r_resspdiff            =    var_r_resspdiff     
parameters    par_dxw_resspdiff          =    var_dxw_resspdiff   
parameters    par_r_ressnpoly            =    var_r_ressnpoly     
parameters    par_dxw_ressnpoly          =    var_dxw_ressnpoly   
parameters    par_r_ressppoly            =    var_r_ressppoly     
parameters    par_dxw_ressppoly          =    var_dxw_ressppoly   
parameters    par_r_resnsndiff           =    var_r_resnsndiff    
parameters    par_rend_resnsndiff        =    var_rend_resnsndiff 
parameters    par_dxw_resnsndiff         =    var_dxw_resnsndiff  
parameters    par_r_resnspdiff           =    var_r_resnspdiff    
parameters    par_rend_resnspdiff        =    var_rend_resnspdiff 
parameters    par_dxw_resnspdiff         =    var_dxw_resnspdiff  
parameters    par_r_resnsnpoly           =    var_r_resnsnpoly    
parameters    par_rend_resnsnpoly        =    var_rend_resnsnpoly 
parameters    par_dxw_resnsnpoly         =    var_dxw_resnsnpoly  
parameters    par_r_resnsppoly           =    var_r_resnsppoly    
parameters    par_rend_resnsppoly        =    var_rend_resnsppoly 
parameters    par_dxl_resnsppoly         =    var_dxl_resnsppoly  
parameters    par_r_resm1                =    var_r_resm1         
parameters    par_r_resm2                =    var_r_resm2         
parameters    par_r_resm3                =    var_r_resm3         
parameters    par_r_resm4                =    var_r_resm4         
parameters    par_r_resm5                =    var_r_resm5         
parameters    par_r_resm6                =    var_r_resm6         
parameters    par_r_resm7                =    var_r_resm7         
parameters    par_r_resm8                =    var_r_resm8         
parameters    par_r_resm9                =    var_r_resm9         
parameters    par_r_resm10               =    var_r_resm10        
parameters    par_r_resm11  	         =    var_r_resm11  	    
parameters    r_resnwsti                 =  1e3    * (1 + 0.05 *    par_r_resnwsti          )         
parameters    r_resnwoxide	         =  450    * (1 + 0.05 *    par_r_resnwoxide        )
parameters    r_ressndiff	         =  18     * (1 + 0.05 *    par_r_ressndiff         )
parameters    r_dxw_ressndiff            = 0.0099u *                par_dxw_ressndiff
parameters    r_resspdiff	         =  15   *   (1 + 0.05 *    par_r_resspdiff         )
parameters    r_dxw_resspdiff            =  0.0099u *               par_dxw_resspdiff
parameters    r_ressnpoly	         =  15    *  (1 + 0.05 *    par_r_ressnpoly         )
parameters    r_dxw_ressnpoly            =  0.0072u *               par_dxw_ressnpoly
parameters    r_ressppoly	         =  15    *  (1 + 0.05 *    par_r_ressppoly         )
parameters    r_dxw_ressppoly            =  0.0086u *               par_dxw_ressppoly        
parameters    r_resnsndiff	         =  100 *    (1 + 0.0375 *  par_r_resnsndiff        )
parameters    r_rend_resnsndiff          =  8.46e-6 *(1 + 0.45 *    par_rend_resnsndiff     )     
parameters    r_dxl_resnsndiff           =  0+ 0.0u
parameters    r_dxw_resnsndiff           =  0.023u *                par_dxw_resnsndiff           
parameters    r_resnspdiff	         =  200  *   (1 + 0.0625 *  par_r_resnspdiff        )
parameters    r_rend_resnspdiff          =  2.95e-5 *(1 + 0.29 *    par_rend_resnspdiff     )    
parameters    r_dxl_resnspdiff           =  0 + 0.0u  
parameters    r_dxw_resnspdiff           =  0.021u *                par_dxw_resnspdiff
parameters    r_resnsnpoly	         =  200 *    (1 + 0.0375 *  par_r_resnsnpoly        )
parameters    r_rend_resnsnpoly          =  1.44e-5* (1 + 0.38 *    par_rend_resnsnpoly     ) 
parameters    r_dxl_resnsnpoly           =  0  + 0.0u      
parameters    r_dxw_resnsnpoly           =  0.018u *                par_dxw_resnsnpoly         
parameters    r_resnsppoly	         =  600 *    (1 + 0.0375 *  par_r_resnsppoly        )
parameters    r_rend_resnsppoly          =  7.015e-6*(1 + 0.27   *  par_rend_resnsppoly     )
parameters    r_dxw_resnsppoly           =  0  + 0.0u
parameters    r_dxl_resnsppoly           =  0.020u *                par_dxl_resnsppoly       
parameters    r_resm1                    =  0.0736 * (1 + 0.05 *    par_r_resm1             )               
parameters    r_resm2                    =  0.0604  * (1 + 0.05 *   par_r_resm2             )                
parameters    r_resm3                    =  0.0604  * (1 + 0.05 *   par_r_resm3             )                
parameters    r_resm4                    =  0.0604  * (1 + 0.05 *   par_r_resm4             )              
parameters    r_resm5                    =  0.0604  * (1 + 0.05 *   par_r_resm5             )            
parameters    r_resm6                    =  0.0604 * (1 + 0.05 *    par_r_resm6             )                 
parameters    r_resm7                    =  0.0604 * (1 + 0.05 *    par_r_resm7             )                
parameters    r_resm8                    =  0.0214 * (1 + 0.05 *    par_r_resm8             )                
parameters    r_resm9                    =  0.0214  * (1 + 0.05 *   par_r_resm9             )                
parameters    r_resm10                   =  0.0214  * (1 + 0.05 *   par_r_resm10            )                
parameters    r_resm11	                 =  0.021  * (1 + 0.05 *    par_r_resm11            ) 	       
include "gpdk045_resistor.scs" section=res
endsection mc_res


section stat_res        
parameters      random_r_resnwsti        = 0
parameters      random_r_resnwoxide      = 0
parameters      random_r_ressndiff       = 0
parameters      random_dxw_ressndiff     = 0
parameters      random_r_resspdiff       = 0
parameters      random_dxw_resspdiff     = 0
parameters      random_r_ressnpoly       = 0
parameters      random_dxw_ressnpoly     = 0
parameters      random_r_ressppoly       = 0
parameters      random_dxw_ressppoly     = 0
parameters      random_r_resnsndiff      = 0
parameters      random_rend_resnsndiff   = 0
parameters      random_dxw_resnsndiff    = 0
parameters      random_r_resnspdiff      = 0
parameters      random_rend_resnspdiff   = 0
parameters      random_dxw_resnspdiff    = 0
parameters      random_r_resnsnpoly      = 0
parameters      random_rend_resnsnpoly   = 0
parameters      random_dxw_resnsnpoly    = 0
parameters      random_r_resnsppoly      = 0
parameters      random_rend_resnsppoly   = 0
parameters      random_dxl_resnsppoly    = 0
parameters      random_r_resm1           = 0
parameters      random_r_resm2           = 0
parameters      random_r_resm3           = 0
parameters      random_r_resm4           = 0
parameters      random_r_resm5           = 0
parameters      random_r_resm6           = 0
parameters      random_r_resm7           = 0
parameters      random_r_resm8           = 0
parameters      random_r_resm9           = 0
parameters      random_r_resm10          = 0
parameters      random_r_resm11          = 0
parameters     var_r_resnwsti            =     random_r_resnwsti       
parameters     var_r_resnwoxide          =     random_r_resnwoxide     
parameters     var_r_ressndiff           =     random_r_ressndiff      
parameters     var_dxw_ressndiff         =     random_dxw_ressndiff    
parameters     var_r_resspdiff           =     random_r_resspdiff      
parameters     var_dxw_resspdiff         =     random_dxw_resspdiff    
parameters     var_r_ressnpoly           =     random_r_ressnpoly      
parameters     var_dxw_ressnpoly         =     random_dxw_ressnpoly    
parameters     var_r_ressppoly           =     random_r_ressppoly      
parameters     var_dxw_ressppoly         =     random_dxw_ressppoly    
parameters     var_r_resnsndiff          =     random_r_resnsndiff     
parameters     var_rend_resnsndiff       =     random_rend_resnsndiff  
parameters     var_dxw_resnsndiff        =     random_dxw_resnsndiff   
parameters     var_r_resnspdiff          =     random_r_resnspdiff     
parameters     var_rend_resnspdiff       =     random_rend_resnspdiff  
parameters     var_dxw_resnspdiff        =     random_dxw_resnspdiff   
parameters     var_r_resnsnpoly          =     random_r_resnsnpoly     
parameters     var_rend_resnsnpoly       =     random_rend_resnsnpoly  
parameters     var_dxw_resnsnpoly        =     random_dxw_resnsnpoly   
parameters     var_r_resnsppoly          =     random_r_resnsppoly     
parameters     var_rend_resnsppoly       =     random_rend_resnsppoly  
parameters     var_dxl_resnsppoly        =     random_dxl_resnsppoly   
parameters     var_r_resm1               =     random_r_resm1          
parameters     var_r_resm2               =     random_r_resm2          
parameters     var_r_resm3               =     random_r_resm3          
parameters     var_r_resm4               =     random_r_resm4          
parameters     var_r_resm5               =     random_r_resm5          
parameters     var_r_resm6               =     random_r_resm6          
parameters     var_r_resm7               =     random_r_resm7          
parameters     var_r_resm8               =     random_r_resm8          
parameters     var_r_resm9               =     random_r_resm9          
parameters     var_r_resm10              =     random_r_resm10         
parameters     var_r_resm11  	         =     random_r_resm11         
statistics {
   process {     
            vary    random_r_resnwsti               dist=gauss std=1/1  
            vary    random_r_resnwoxide             dist=gauss std=1/1  
            vary    random_r_ressndiff              dist=gauss std=1/1  
            vary    random_dxw_ressndiff            dist=gauss std=1/1  
            vary    random_r_resspdiff              dist=gauss std=1/1  
            vary    random_dxw_resspdiff            dist=gauss std=1/1  
            vary    random_r_ressnpoly              dist=gauss std=1/1  
            vary    random_dxw_ressnpoly            dist=gauss std=1/1  
            vary    random_r_ressppoly              dist=gauss std=1/1  
            vary    random_dxw_ressppoly            dist=gauss std=1/1  
            vary    random_r_resnsndiff             dist=gauss std=1/1  
            vary    random_rend_resnsndiff          dist=gauss std=1/1  
            vary    random_dxw_resnsndiff           dist=gauss std=1/1  
            vary    random_r_resnspdiff             dist=gauss std=1/1  
            vary    random_rend_resnspdiff          dist=gauss std=1/1  
            vary    random_dxw_resnspdiff           dist=gauss std=1/1  
            vary    random_r_resnsnpoly             dist=gauss std=1/1  
            vary    random_rend_resnsnpoly          dist=gauss std=1/1  
            vary    random_dxw_resnsnpoly           dist=gauss std=1/1  
            vary    random_r_resnsppoly             dist=gauss std=1/1  
            vary    random_rend_resnsppoly          dist=gauss std=1/1  
            vary    random_dxl_resnsppoly           dist=gauss std=1/1  
            vary    random_r_resm1                  dist=gauss std=1/1  
            vary    random_r_resm2                  dist=gauss std=1/1  
            vary    random_r_resm3                  dist=gauss std=1/1  
            vary    random_r_resm4                  dist=gauss std=1/1  
            vary    random_r_resm5                  dist=gauss std=1/1  
            vary    random_r_resm6                  dist=gauss std=1/1  
            vary    random_r_resm7                  dist=gauss std=1/1  
            vary    random_r_resm8                  dist=gauss std=1/1  
            vary    random_r_resm9                  dist=gauss std=1/1  
            vary    random_r_resm10                 dist=gauss std=1/1  
            vary    random_r_resm11                 dist=gauss std=1/1     
        }
    }   
endsection stat_res



section  res




//  *********************************   N-well Resistor under STI  *********************************
subckt resnwsti ( n1 n2 ) 
parameters l=1.0e-6 w=1.0e-6 factor=1.0 mf=1.0 
+ dw = 2e-7                     pvc1 = 7.6e-7                 
+ pvc2 = -4.77e-4               ptc1 = 3.71e-3                ptc2 = 1e-7  
+rsh = r_resnwsti              pt = temp                 tfac = 1.0+ptc1*(pt-25.0)+ptc2*(pt-25.0)*(pt-25.0) 
r1 ( n1 n2 ) bsource r=rsh/mf*l*factor/(w*factor-dw)*(1+pvc1*(abs(v(n2,n1))/factor)+pvc2*(v(n2,n1)/factor)*(v(n2,n1)/factor))*tfac
ends resnwsti


//  *********************************   N-well Resistor under Oxide  *********************************
                         

subckt resnwoxide ( n1 n2 ) 
parameters l=1.0e-6 w=1.0e-6 factor=1.0 mf=1.0 
+ dw = 1.4e-7                   pvc1 = 0.0124                 
+ pvc2 = -2.98e-4               ptc1 = 2.83e-3                ptc2 = 1.04e-5  
+rsh = r_resnwoxide               pt = temp                 tfac = 1.0+ptc1*(pt-25.0)+ptc2*(pt-25.0)*(pt-25.0) 
r1 ( n1 n2 ) bsource r=rsh/mf*l*factor/(w*factor-dw)*(1+pvc1*(abs(v(n2,n1))/factor)+pvc2*(v(n2,n1)/factor)*(v(n2,n1)/factor))*tfac
ends resnwoxide

//  *********************************   N+ Diffused Resistor (salicide)  *********************************
                      

subckt ressndiff ( n1 n2 ) 
parameters l=1.0e-6 w=1.0e-6 factor=1.0 mf=1.0 
+ pvc1 = 4.77e-7                
+ pvc2 = 7.63e-13               ptc1 = 3.2e-3                 ptc2 = 4.06e-7 
+rsh = r_ressndiff               dw = r_dxw_ressndiff              pt = temp                
+tfac = 1.0+ptc1*(pt-25.0)+ptc2*(pt-25.0)*(pt-25.0) 
r1 ( n1 n2 ) bsource r=rsh/mf*l*factor/(w*factor-dw)*(1+pvc1*(abs(v(n2,n1))/l/factor)+pvc2*(v(n2,n1)/l/factor)*(v(n2,n1)/l/factor))*tfac
ends ressndiff

//  *********************************   P+ Diffused Resistor (salicide)  *********************************
                     

subckt resspdiff ( n1 n2 ) 
parameters l=1.0e-6 w=1.0e-6 factor=1.0 mf=1.0 
+ pvc1 = 6.04e-7                
+ pvc2 = 7.82e-13               ptc1 = 3.55e-3                ptc2 = -3.88e-7   
+rsh = r_resspdiff               dw = r_dxw_resspdiff              pt = temp                 
+tfac = 1.0+ptc1*(pt-25.0)+ptc2*(pt-25.0)*(pt-25.0) 
r1 ( n1 n2 ) bsource r=rsh/mf*l*factor/(w*factor-dw)*(1+pvc1*(abs(v(n2,n1))/l/factor)+pvc2*(v(n2,n1)/l/factor)*(v(n2,n1)/l/factor))*tfac
ends resspdiff

//  *********************************   N+ Poly Resistor (salicide) *********************************

                       

subckt ressnpoly ( n1 n2 ) 
parameters l=1.0e-6 w=1.0e-6 factor=1.0 mf=1.0 
+ pvc1 = 1.51e-6                
+ pvc2 = 1.13e-12               ptc1 = 3.32e-3                ptc2 = -1.71e-6  
+rsh = r_ressnpoly             dw = r_dxw_ressnpoly            pt = temp                 
+tfac = 1.0+ptc1*(pt-25.0)+ptc2*(pt-25.0)*(pt-25.0) 
r1 ( n1 n2 ) bsource r=rsh/mf*l*factor/(w*factor-dw)*(1+pvc1*(abs(v(n2,n1))/l/factor)+pvc2*(v(n2,n1)/l/factor)*(v(n2,n1)/l/factor))*tfac
ends ressnpoly


//  *********************************   P+ Poly Resistor (salicide) *********************************

subckt ressppoly ( n1 n2 ) 
parameters  l=1.0e-6 w=1.0e-6 factor=1.0 mf=1.0 
+ pvc1 = 1.82e-6                
+ pvc2 = 1.23e-12               ptc1 = 3.28e-3                ptc2 = -1.09e-6        
+rsh = r_ressppoly            dw = r_dxw_ressppoly            pt = temp                
+tfac = 1.0+ptc1*(pt-25.0)+ptc2*(pt-25.0)*(pt-25.0) 
r1 ( n1 n2 ) bsource r=rsh/mf*l*factor/(w*factor-dw)*(1+pvc1*(abs(v(n2,n1))/l/factor)+pvc2*(v(n2,n1)/l/factor)*(v(n2,n1)/l/factor))*tfac
ends ressppoly


//  *********************************  N+ Diffused Resistor (w/o salicide)  *********************************
          
subckt resnsndiff ( n1 n2 ) 
parameters  l=1.0e-6 w=1.0e-6 factor=1.0 mf=1.0              
+pvcp1 = -0.296                pvcp2 = -8.04e-6              
+pvcp3 = -2.449                ptcp1 = 2.565e-3              ptcp2 = 5.5e-7                
+pvce1 = -0.0689               pvce2 = 1.12e3                pvce3 = -0.182                
+ptce1 = 1.875e-3              ptce2 = 2.5e-6                
+rsh = r_resnsndiff             rend0 = r_rend_resnsndiff    dw = r_dxw_resnsndiff             
+dl = r_dxl_resnsndiff             pt = temp                  tface = 1.0+ptce1*(pt-25.0)+ptce2*(pt-25.0)*(pt-25.0) 
+tfacp = 1.0+ptcp1*(pt-25.0)+ptcp2*(pt-25.0)*(pt-25.0) 
rend1 ( n1 3 ) bsource r=rend0/mf/w/factor*tface*(1+pvce1*(tanh(pvce2*abs(v(n1,3))+pvce3)-tanh(pvce3)))
rp ( 3 4 ) bsource r=rsh/mf*(l*factor-dl)/(w*factor-dw)*tfacp*(1+pvcp1*(tanh(pvcp2*abs(v(3,4)/(l*factor-dl))+pvcp3)-tanh(pvcp3)))
rend2 ( 4 n2 ) bsource r=rend0/mf/w/factor*tface*(1+pvce1*(tanh(pvce2*abs(v(4,n2))+pvce3)-tanh(pvce3)))
ends resnsndiff




                                
                                  
//  *********************************  P+ Diffused Resistor (w/o salicide)  *********************************
           
subckt resnspdiff ( n1 n2 )
parameters  l=1.0e-6 w=1.0e-6 factor=1.0 mf=1.0              
+ pvcp1 = -0.389                pvcp2 = -1.73e-6              
+ pvcp3 = -2.098                ptcp1 = 1.51e-3               ptcp2 = 4.14e-6               
+ pvce1 = 0.035                 pvce2 = 259                   pvce3 = -0.0992               
+ ptce1 = -1e-3                 ptce2 = 2e-6                  
+rsh = r_resnspdiff              rend0 = r_rend_resnspdiff         dw = r_dxw_resnspdiff             
+dl = r_dxl_resnspdiff             pt = temp                 tface = 1.0+ptce1*(pt-25.0)+ptce2*(pt-25.0)*(pt-25.0) 
+tfacp = 1.0+ptcp1*(pt-25.0)+ptcp2*(pt-25.0)*(pt-25.0) 
rend1 ( n1 3 ) bsource r=rend0/mf/w/factor*tface*(1+pvce1*(tanh(pvce2*abs(v(n1,3))+pvce3)-tanh(pvce3)))
rp ( 3 4 ) bsource r=rsh/mf*(l*factor-dl)/(w*factor-dw)*tfacp*(1+pvcp1*(tanh(pvcp2*abs(v(3,4)/(l*factor-dl))+pvcp3)-tanh(pvcp3)))
rend2 ( 4 n2 ) bsource r=rend0/mf/w/factor*tface*(1+pvce1*(tanh(pvce2*abs(v(4,n2))+pvce3)-tanh(pvce3)))
ends resnspdiff
                                  
                                  

 
//  *********************************    N+ Poly Resistor (w/o salicide)  *********************************
                         
subckt resnsnpoly ( n1 n2 ) 
parameters l=1.0e-6 w=1.0e-6 factor=1.0 mf=1.0            
+pvcp1 = -0.788                pvcp2 = -9.8e-5               
+pvcp3 = -2.453                ptcp1 = 9.89e-4               ptcp2 = 2.5e-6                
+pvce1 = -0.0227               pvce2 = -654                  pvce3 = 0.766                 
+ptce1 = 3e-3                  ptce2 = 8e-6   
+rsh = r_resnsnpoly            rend0 = r_rend_resnsnpoly       dw = r_dxw_resnsnpoly           
+dl = r_dxl_resnsnpoly           pt = temp                 tface = 1.0+ptce1*(pt-25.0)+ptce2*(pt-25.0)*(pt-25.0) 
+tfacp = 1.0+ptcp1*(pt-25.0)+ptcp2*(pt-25.0)*(pt-25.0) 
rend1 ( n1 3 ) bsource r=rend0/mf/w/factor*tface*(1+pvce1*(tanh(pvce2*abs(v(n1,3))+pvce3)-tanh(pvce3)))
rp ( 3 4 ) bsource r=rsh/mf*(l*factor-dl)/(w*factor-dw)*tfacp*(1+pvcp1*(tanh(pvcp2*abs(v(3,4)/(l*factor-dl))+pvcp3)-tanh(pvcp3)))
rend2 ( 4 n2 ) bsource r=rend0/mf/w/factor*tface*(1+pvce1*(tanh(pvce2*abs(v(4,n2))+pvce3)-tanh(pvce3)))
ends resnsnpoly
 
 
//  *********************************  P+ Poly Resistor (w/o salicide)  *********************************
                     
subckt resnsppoly ( n1 n2 ) 
parameters l=1.0e-6 w=1.0e-6 factor=1.0 mf=1.0           
+pvcp1 = 1.1e-3                pvcp2 = -2.69e-5              
+pvcp3 = 2.957                 ptcp1 = -5e-4                 ptcp2 = 8.692e-15             
+pvce1 = 0.0104                pvce2 = -7.216                pvce3 = 0.172                 
+ptce1 = -8e-7                 ptce2 = -5e-6   
+rsh = r_resnsppoly            rend0 = r_rend_resnsppoly       dw = r_dxw_resnsppoly           
+dl = r_dxl_resnsppoly           pt = temp                 tface = 1.0+ptce1*(pt-25.0)+ptce2*(pt-25.0)*(pt-25.0) 
+tfacp = 1.0+ptcp1*(pt-25.0)+ptcp2*(pt-25.0)*(pt-25.0) 
rend1 ( n1 3 ) bsource r=rend0/mf/w/factor*tface*(1+pvce1*(tanh(pvce2*abs(v(n1,3))+pvce3)-tanh(pvce3)))
rp ( 3 4 ) bsource r=rsh/mf*(l*factor-dl)/(w*factor-dw)*tfacp*(1+pvcp1*(tanh(pvcp2*abs(v(3,4)/(l*factor-dl))+pvcp3)-tanh(pvcp3)))
rend2 ( 4 n2 ) bsource r=rend0/mf/w/factor*tface*(1+pvce1*(tanh(pvce2*abs(v(4,n2))+pvce3)-tanh(pvce3)))
ends resnsppoly

               
//  *********************************     Metal 1      ***********************************               
subckt gpdk045_resm1 ( n1 n2 ) 
parameters l=1.0e-6 w=1.0e-6 factor=1.0 mf=1.0 
+dw = 0                        pvc1 = 0                      
+pvc2 = 0                      ptc1 = 2.92e-3                ptc2 = -1.22e-7               
+rsh = r_resm1                 pt = temp                  tfac = 1.0+ptc1*(pt-25.0)+ptc2*(pt-25.0)*(pt-25.0) 
r1 ( n1 n2 ) bsource r=rsh/mf*l*factor/(w*factor-dw)*(1+pvc1*(abs(v(n2,n1))/l/factor)+pvc2*(v(n2,n1)/l/factor)*(v(n2,n1)/l/factor))*tfac
ends gpdk045_resm1


                      
//  *********************************     Metal 2      ***********************************   
subckt gpdk045_resm2 ( n1 n2 )  
parameters l=1.0e-6 w=1.0e-6 factor=1.0 mf=1.0 
+dw = 0                        pvc1 = 0                      
+pvc2 = 0                      ptc1 = 3.077e-3               ptc2 = -1.14e-7     