simulator lang=spectre
library  gpdk045
//  ******************************************************************************
//  ****************************************************************************
//                                                                             *
//        THIS MODEL LIB CONTAINS :                                            *
//                                                                             *
//        1.LIB TT							       *
//              FF							       *
//		SS							       *	
//		FS							       *
//		SF							       *	
//		MC                                               	       *
//    ( 1.1V Standard-Vt devices with different geometric,statistical, mimatch *
//	     and corner models. )					       *
//                                                                             *
//        2.LIB TT_hvt							       *
//	        FF_hvt                                                         *
//	        SS_hvt                                                         *
//	        FS_hvt                                                         *
//	        SF_hvt                                                         *
//	        MC_hvt                                                         *
//    ( 1.1V High-Vt devices with different geometric, statistical, mismatch   *
//	     and corner models.)    		       			       *
//                                                                             *
//        3.LIB TT_lvt                                                         *
//	        FF_lvt                                                         *
//	        SS_lvt                                                         *
//	        FS_lvt                                                         *
//	        SF_lvt                                                         *
//	        MC_lvt                                                         *
//    ( 1.1V low-Vt devices with different geometric, statistical, mismatch    *
//             and corner models. )    		       			       *
//                                                                             *
//                                                                             *
//        4.LIB TT_na                                                          *
//	        FF_na                                                          *
//	        SS_na                                                          *
//	        FS_na                                                          *
//	        SF_na                                                          *
//	        MC_na                                                          *
//    ( 1.1V native devices with different geometric, statistical, mismatch    *
//	     and corner models.  )    		        		       *
//                                                                             *
//        5.LIB TT_18                                                          *
//	        FF_18                                                          *
//	        SS_18                                                          *
//	        FS_18                                                          *
//	        SF_18                                                          *
//	        MC_18                                                          *
//    ( 1.8V devices with different geometric, statistical, mismatch and       *
//	     corner models.  )    		               		       *
//                                                                             *
//        3.LIB TT_na18                                                        *
//              FF_na18                                                        *
//              SS_na18                                                        *
//              FS_na18                                                        *
//              SF_na18                                                        *
//              MC_na18                                                        *
//    ( 1.8V native devices with different geometric, statistical, mismatch    *
//	     and corner models.  )    		       			       *


section stat_mis_std
parameters
+rn1=0 	rn2=0   rp1=0	rp2=0
statistics { 
 mismatch { 
  vary rn1 dist=gauss std=1/1 
  vary rn2 dist=gauss std=1/1 
  vary rp1 dist=gauss std=1/1 
  vary rp2 dist=gauss std=1/1 
  } 
 } 
endsection stat_mis_std
 
section stat_mis_hvt 
parameters
+rn1_hvt=0 	rn2_hvt=0   rp1_hvt=0	rp2_hvt=0
statistics { 
 mismatch { 
  vary rn1_hvt dist=gauss std=1/1 
  vary rn2_hvt dist=gauss std=1/1 
  vary rp1_hvt dist=gauss std=1/1 
  vary rp2_hvt dist=gauss std=1/1 
  } 
 } 
endsection stat_mis_hvt 
section stat_mis_lvt 
parameters
+rn1_lvt=0 	rn2_lvt=0   rp1_lvt=0	rp2_lvt=0
statistics { 
 mismatch { 
  vary rn1_lvt dist=gauss std=1/1 
  vary rn2_lvt dist=gauss std=1/1 
  vary rp1_lvt dist=gauss std=1/1 
  vary rp2_lvt dist=gauss std=1/1 
  } 
 } 
endsection stat_mis_lvt 

section stat_mis_na 
parameters
+rn1_na=0 	rn2_na=0
statistics { 
 mismatch { 
  vary rn1_na dist=gauss std=1/1 
  vary rn2_na dist=gauss std=1/1 
  } 
 } 
endsection stat_mis_na 


section stat_mis_18 
parameters
+rn1_18=0 	rn2_18=0   rp1_18=0	rp2_18=0
statistics { 
 mismatch { 
  vary rn1_18 dist=gauss std=1/1 
  vary rn2_18 dist=gauss std=1/1 
  vary rp1_18 dist=gauss std=1/1 
  vary rp2_18 dist=gauss std=1/1 
  } 
 } 
endsection stat_mis_18 

section stat_mis_18na 
parameters
+rn1_na18=0 	rn2_na18=0
statistics { 
 mismatch { 
  vary rn1_na18 dist=gauss std=1/1 
  vary rn2_na18 dist=gauss std=1/1 
  } 
 } 
endsection stat_mis_18na 



section stat
parameters
+random1 = 0                   random2 = 0                   random3 = 0                   
+random4 = 0    
+random5 = 0                   random6 = 0                   random7 = 0                   
+random8 = 0    
+random9 = 0                   random10 = 0                   random11 = 0                   
+random12 = 0 
+random13 = 0                   random14 = 0                   random15 = 0                   
+random16 = 0  
+random17 = 0                   random18 = 0                   random19 = 0                   
+random20 = 0 
+random21 = 0                   random22 = 0                   random23 = 0                   
+random24 = 0  
statistics {
    process {
        vary random1 dist=gauss std=1/1
        vary random2 dist=gauss std=1/1
        vary random3 dist=gauss std=1/1
        vary random4 dist=gauss std=1/1
        vary random5 dist=gauss std=1/1
        vary random6 dist=gauss std=1/1
        vary random7 dist=gauss std=1/1
        vary random8 dist=gauss std=1/1
        vary random9 dist=gauss std=1/1
        vary random10 dist=gauss std=1/1
        vary random11 dist=gauss std=1/1
        vary random12 dist=gauss std=1/1 
        vary random13 dist=gauss std=1/1
        vary random14 dist=gauss std=1/1
        vary random15 dist=gauss std=1/1
        vary random16 dist=gauss std=1/1
        vary random17 dist=gauss std=1/1
        vary random18 dist=gauss std=1/1
        vary random19 dist=gauss std=1/1
        vary random20 dist=gauss std=1/1
        vary random21 dist=gauss std=1/1
        vary random22 dist=gauss std=1/1
        vary random23 dist=gauss std=1/1
        vary random24 dist=gauss std=1/1                               
        }
    }                         
endsection stat




section  tt
parameters
+tox_n = 2.41E-9               dxl_n = 0                     
+dxw_n = 0                     dvth0_n = 0                   dlvth0_n = 0                  
+dwvth0_n = 0                  dpvth0_n = 0                  du0_n = 0                     
+dlu0_n = 0                    dwu0_n = 0                    dpu0_n = 0                    
+dvsat_n = 0                   dcj_n = 0                     dcjsw_n = 0                   
+dcjswg_n = 0                  dcgso_n = 0                   dcgdo_n = 0                   
+dcgsl_n = 0                   dcgdl_n = 0                   
+tox_p = 2.4E-9                dvth0_p = 0                   dlvth0_p = 0                  
+dwvth0_p = 0                  dpvth0_p = 0                  dxl_p = 0                     
+dxw_p = 0                     du0_p = 0                     dlu0_p = 0                    
+dwu0_p = 0                    dpu0_p = 0                    dvsat_p = 0                   
+dcj_p = 0                     dcjsw_p = 0                   dcjswg_p = 0                  
+dcgso_p = 0                   dcgdo_p = 0                   dcgsl_p = 0                   
+dcgdl_p = 0                   
include "gpdk045_mos.scs"   section = stat_mis_std
include "gpdk045_mos.scs"   section = mos
endsection  tt


section  ff
parameters
+tox_n = 2.37E-9               dxl_n = -4.4E-9               
+dxw_n = 9E-9                  dvth0_n = -0.035              dlvth0_n = -6.4E-10           
+dwvth0_n = -3.58E-9           dpvth0_n = -1.18E-16          du0_n = 6E-5                  
+dlu0_n = -8.1E-11             dwu0_n = -2.2E-11             dpu0_n = -3.84E-18            
+dvsat_n = 0                   dcj_n = -5.682E-5             dcjsw_n = -3.2142E-12         
+dcjswg_n = -1.6896E-11        dcgso_n = 4.98E-12            dcgdo_n = 4.98E-12            
+dcgsl_n = 1.539E-12           dcgdl_n = 1.539E-12           
+tox_p = 2.36E-9               dvth0_p = 0.0292              dlvth0_p = 9E-10              
+dwvth0_p = 2.6E-9             dpvth0_p = 8.7E-17            dxl_p = -4.4E-9               
+dxw_p = 9E-9                  du0_p = 6.8E-4                dlu0_p = -7.8E-11             
+dwu0_p = 2E-12                dpu0_p = -1.34E-17            dvsat_p = 0                   
+dcj_p = -6.5868E-5            dcjsw_p = -4.098E-12          dcjswg_p = -1.6698E-11        
+dcgso_p = 2.79E-12            dcgdo_p = 2.79E-12            dcgsl_p = 4.86E-12            
+dcgdl_p = 4.86E-12            
include "gpdk045_mos.scs"   section = stat_mis_std        
include "gpdk045_mos.scs"   section = mos
endsection  ff

section  ss
parameters
+tox_n = 2.45E-9               dxl_n = 4.4E-9                
+dxw_n = -9E-9                 dvth0_n = 0.036               dlvth0_n = 8.42E-10           
+dwvth0_n = 2.976E-9           dpvth0_n = 1.18E-16           du0_n = -2.07E-4              
+dlu0_n = 1.172E-10            dwu0_n = -6.33E-11            dpu0_n = 9.342E-18            
+dvsat_n = 0                   dcj_n = 5.682E-5              dcjsw_n = 3.2142E-12          
+dcjswg_n = 1.6896E-11         dcgso_n = -4.98E-12           dcgdo_n = -4.98E-12           
+dcgsl_n = -1.539E-12          dcgdl_n = -1.539E-12          
+tox_p = 2.44E-9               dvth0_p = -0.029              dlvth0_p = -1.04E-9           
+dwvth0_p = -1.9E-9            dpvth0_p = -9E-17             dxl_p = 4.4E-9                
+dxw_p = -9E-9                 du0_p = -9.6E-4               dlu0_p = 1.18E-10             
+dwu0_p = -1.22E-10            dpu0_p = 1.97E-17             dvsat_p = 0                   
+dcj_p = 6.5868E-5             dcjsw_p = 4.098E-12           dcjswg_p = 1.6698E-11         
+dcgso_p = -2.79E-12           dcgdo_p = -2.79E-12           dcgsl_p = -4.86E-12           
+dcgdl_p = -4.86E-12           
include "gpdk045_mos.scs"   section = stat_mis_std          
include "gpdk045_mos.scs"   section = mos
endsection  ss

section  fs
parameters
+tox_n = 2.41E-9               dxl_n = 0                     
+dxw_n = 0                     dvth0_n = -0.0175             dlvth0_n = -4.13744E-10       
+dwvth0_n = -1.271456E-9       dpvth0_n = -4.57276E-17       du0_n = 7E-5                  
+dlu0_n = -2.1E-11             dwu0_n = 7.641E-11            dpu0_n = -7.68E-19            
+dvsat_n = 0                   dcj_n = -5.682E-5             dcjsw_n = -3.2142E-12         
+dcjswg_n = -1.6896E-11        dcgso_n = 0                   dcgdo_n = 0                   
+dcgsl_n = 0                   dcgdl_n = 0                   
+tox_p = 2.4E-9                dvth0_p = -0.0145             dlvth0_p = -3.8E-10           
+dwvth0_p = -9.5E-10           dpvth0_p = -9E-18             dxl_p = 0                     
+dxw_p = 0                     du0_p = -4.8E-4               dlu0_p = 3.5E-11              
+dwu0_p = -1.27E-10            dpu0_p = -8.2E-18             dvsat_p = 0                   
+dcj_p = 6.5868E-5             dcjsw_p = 4.098E-12           dcjswg_p = 1.6698E-11         
+dcgso_p = 0                   dcgdo_p = 0                   dcgsl_p = 0                   
+dcgdl_p = 0                   
include "gpdk045_mos.scs"   section = stat_mis_std    
include "gpdk045_mos.scs"   section = mos
endsection  fs

section  sf
parameters
+tox_n = 2.41E-9               dxl_n = 0                     
+dxw_n = 0                     dvth0_n = 0.018               dlvth0_n = 3.61E-10           
+dwvth0_n = 1.088E-9           dpvth0_n = 5.1E-17            du0_n = -1.0825E-4            
+dlu0_n = 1.86E-11             dwu0_n = -1.023E-10           dpu0_n = 1.67232E-18          
+dvsat_n = 0                   dcj_n = 5.682E-5              dcjsw_n = 3.2142E-12          
+dcjswg_n = 1.6896E-11         dcgso_n = 0                   dcgdo_n = 0                   
+dcgsl_n = 0                   dcgdl_n = 0                   
+tox_p = 2.4E-9                dvth0_p = 0.0136              dlvth0_p = 4.6E-10            
+dwvth0_p = 1.2E-9             dpvth0_p = 2.55E-17           dxl_p = 0                     
+dxw_p = 0                     du0_p = 4.6E-4                dlu0_p = -4E-11               
+dwu0_p = 8.948E-11            dpu0_p = -1.4E-18             dvsat_p = 0                   
+dcj_p = -6.5868E-5            dcjsw_p = -4.098E-12          dcjswg_p = -1.6698E-11        
+dcgso_p = 0                   dcgdo_p = 0                   dcgsl_p = 0                   
+dcgdl_p = 0                   
include "gpdk045_mos.scs"   section = stat_mis_std
include "gpdk045_mos.scs"   section = mos
endsection  sf

section mc
parameters
+a1 = random1                  a2 = random2                  
+a3 = random3                  a4 = random4       

parameters
+tox_n = 2.41e-9-3.4e-13*a1-1.1903e-11*a2-5.1e-13*a3+5.7697e-12*a4 
+dxl_n = 0-3.1e-11*a1-1.4e-9*a2-1.405e-10*a3+3.7e-10*a4 
+dxw_n = 0+1.8797e-10*a1+2.7e-9*a2-9.5e-10*a3-2.3e-10*a4 
+dvth0_n = 0-6.3e-3*a1-4.9519e-3*a2+6.3164e-3*a3+3.8623e-3*a4 
+dlvth0_n = 0-6.89e-11*a1-1.83e-10*a2+2.4158e-10*a3-7.5252e-11*a4 
+dwvth0_n = 0-2.9703e-10*a1-5.39e-11*a2+7.373e-10*a3+3.3967e-10*a4 
+dpvth0_n = 0-4.32e-17*a1+4.786e-18*a2+1.49e-17*a3+2.8e-17*a4 
+du0_n = 0+8e-5*a1-4.848e-5*a2-7.86e-5*a3+2.8e-17*a4 
+dlu0_n = 0-2.1e-12*a1-2.7e-11*a2+1.48e-11*a3-1.1e-12*a4 
+dwu0_n = 0-1.13e-11*a1+1.4e-11*a2-3.62e-11*a3-3e-12*a4 
+dpu0_n = 0+5e-19*a1-2.4e-19*a2+3.751e-18*a3-3.4e-19*a4 
+dvsat_n = 0+0*a1+0*a2+0*a3+0*a4 
+dcgso_n = -0.1245*(-3.4e-13*a1-1.1903e-11*a2-5.1e-13*a3+5.7697e-12*a4) 
+dcgdo_n = -0.1245*(-3.4e-13*a1-1.1903e-11*a2-5.1e-13*a3+5.7697e-12*a4) 
+dcgsl_n = -0.0385*(-3.4e-13*a1-1.1903e-11*a2-5.1e-13*a3+5.7697e-12*a4) 
+dcgdl_n = -0.0385*(-3.4e-13*a1-1.1903e-11*a2-5.1e-13*a3+5.7697e-12*a4) 
+dcj_n = 1.14e-5*a1-5.2e-6*a2-1.31e-5*a3+1.34e-6*a4 
+dcjsw_n = 5.66e-8*(1.14e-5*a1-5.2e-6*a2-1.31e-5*a3+1.34e-6*a4) 
+dcjswg_n = 2.975e-7*(1.14e-5*a1-5.2e-6*a2-1.31e-5*a3+1.34e-6*a4)
+tox_p = 2.4e-9-3.4e-13*a1-1.1903e-11*a2-5.1e-13*a3+5.7697e-12*a4 
+dxl_p = 0-3.1e-11*a1-1.4e-9*a2-1.405e-10*a3+3.7e-10*a4 
+dxw_p = 0+1.8797e-10*a1+2.7e-9*a2-9.5e-10*a3-2.3e-10*a4 
+dvth0_p = 0-5.50872e-3*a1-3.06696e-3*a2+5.860787e-3*a3+3.048809e-3*a4 
+dlvth0_p = 0-2.9e-11*a1-1.7e-10*a2+2.158e-10*a3-7.5252e-11*a4 
+dwvth0_p = 0-2.003e-10*a1-6.539e-10*a2+2.073e-10*a3+3.0967e-10*a4 
+dpvth0_p = 0-4.8e-18*a1+4.786e-18*a2+2.9e-18*a3+2.8e-17*a4 
+du0_p = 0-1.61018e-4*a1-4.05e-4*a2-4.1196e-6*a3+2.8e-17*a4 
+dlu0_p = 0+2.5e-11*a1+2.053e-11*a2+8e-13*a3+2e-12*a4 
+dwu0_p = 0-7.13e-11*a1-8.154e-11*a2-2e-13*a3+3.1e-11*a4 
+dpu0_p = 0+9.98e-19*a1-6.921e-18*a2-2.1e-19*a3-1.94e-18*a4 
+dvsat_p = 0+0*a1+0*a2+0*a3+0*a4 
+dcgso_p = -0.06975*(-3.4e-13*a1-1.1903e-11*a2-5.1e-13*a3+5.7697e-12*a4) 
+dcgdo_p = -0.06975*(-3.4e-13*a1-1.1903e-11*a2-5.1e-13*a3+5.7697e-12*a4) 
+dcgsl_p = -0.1215*(-3.4e-13*a1-1.1903e-11*a2-5.1e-13*a3+5.7697e-12*a4) 
+dcgdl_p = -0.1215*(-3.4e-13*a1-1.1903e-11*a2-5.1e-13*a3+5.7697e-12*a4) 
+dcj_p = 1.443e-5*a1-5.55e-6*a2-1.42e-5*a3+9.4e-7*a4 
+dcjsw_p = 6.22e-8*(1.443e-5*a1-5.55e-6*a2-1.42e-5*a3+9.4e-7*a4) 
+dcjswg_p = 2.536e-7*(1.443e-5*a1-5.55e-6*a2-1.42e-5*a3+9.4e-7*a4)  
include "gpdk045_mos.scs"   section = stat_mis_std  
include "gpdk045_mos.scs"   section = mos
endsection mc


section  tt_hvt
parameters
+tox_n_hvt = 2.41E-9           dxl_n_hvt = 0                 
+dxw_n_hvt = 0                 dvth0_n_hvt = 0               dlvth0_n_hvt = 0              
+dwvth0_n_hvt = 0              dpvth0_n_hvt = 0              du0_n_hvt = 0                 
+dlu0_n_hvt = 0                dwu0_n_hvt = 0                dpu0_n_hvt = 0                
+dvsat_n_hvt = 0               dcj_n_hvt = 0                 dcjsw_n_hvt = 0               
+dcjswg_n_hvt = 0              dcgso_n_hvt = 0               dcgdo_n_hvt = 0               
+dcgsl_n_hvt = 0               dcgdl_n_hvt = 0               
+tox_p_hvt = 2.4E-9            dxl_p_hvt = 0                 dxw_p_hvt = 0                 
+dvth0_p_hvt = 0               dlvth0_p_hvt = 0              dwvth0_p_hvt = 0              
+dpvth0_p_hvt = 0              du0_p_hvt = 0                 dlu0_p_hvt = 0                
+dwu0_p_hvt = 0                dpu0_p_hvt = 0                dvsat_p_hvt = 0               
+dcj_p_hvt = 0                 dcjsw_p_hvt = 0               dcjswg_p_hvt = 0              
+dcgso_p_hvt = 0               dcgdo_p_hvt = 0               dcgsl_p_hvt = 0               
+dcgdl_p_hvt = 0               
include "gpdk045_mos.scs"   section = stat_mis_hvt
include "gpdk045_mos.scs"   section = mos_hvt
endsection  tt_hvt

section  ff_hvt
parameters
+tox_n_hvt = 2.37E-9           dxl_n_hvt = -4.2E-9           
+dxw_n_hvt = 6E-9              dvth0_n_hvt = -0.0354         dlvth0_n_hvt = -7.7E-10       
+dwvth0_n_hvt = -3.4E-9        dpvth0_n_hvt = -9.5E-17       du0_n_hvt = -3E-5             
+dlu0_n_hvt = -8.86E-11        dwu0_n_hvt = -1E-11           dpu0_n_hvt = -3.02E-18        
+dvsat_n_hvt = 0               dcj_n_hvt = -6.6E-5           dcjsw_n_hvt = -2.706E-12      
+dcjswg_n_hvt = -2.059E-11     dcgso_n_hvt = 4.527E-12       dcgdo_n_hvt = 4.527E-12       
+dcgsl_n_hvt = 1.089E-12       dcgdl_n_hvt = 1.089E-12       
+tox_p_hvt = 2.36E-9           dxl_p_hvt = -4.41E-9          dxw_p_hvt = 9E-9              
+dvth0_p_hvt = 0.0296          dlvth0_p_hvt = 9E-10          dwvth0_p_hvt = 3E-9           
+dpvth0_p_hvt = -8E-18         du0_p_hvt = 5.2E-4            dlu0_p_hvt = -9.8E-11         
+dwu0_p_hvt = -4.4E-11         dpu0_p_hvt = -5.8E-18         dvsat_p_hvt = 0               
+dcj_p_hvt = -7.92E-6          dcjsw_p_hvt = -3.366E-12      dcjswg_p_hvt = -2.066E-11     
+dcgso_p_hvt = 2.61E-12        dcgdo_p_hvt = 2.61E-12        dcgsl_p_hvt = 2.16E-12        
+dcgdl_p_hvt = 2.16E-12        
include "gpdk045_mos.scs"   section = stat_mis_hvt
include "gpdk045_mos.scs"   section = mos_hvt
endsection  ff_hvt

section  ss_hvt
parameters
+tox_n_hvt = 2.45E-9           dxl_n_hvt = 4.2E-9            
+dxw_n_hvt = -6E-9             dvth0_n_hvt = 0.0327          dlvth0_n_hvt = 9.5E-10        
+dwvth0_n_hvt = 2.94E-9        dpvth0_n_hvt = 1.14E-16       du0_n_hvt = -1.8E-4           
+dlu0_n_hvt = 1.391E-10        dwu0_n_hvt = -8.7E-11         dpu0_n_hvt = 1.01E-17         
+dvsat_n_hvt = 0               dcj_n_hvt = 6.6E-5            dcjsw_n_hvt = 2.706E-12       
+dcjswg_n_hvt = 2.059E-11      dcgso_n_hvt = -4.527E-12      dcgdo_n_hvt = -4.527E-12      
+dcgsl_n_hvt = -1.089E-12      dcgdl_n_hvt = -1.089E-12      
+tox_p_hvt = 2.44E-9           dxl_p_hvt = 4.41E-9           dxw_p_hvt = -9E-9             
+dvth0_p_hvt = -0.02844        dlvth0_p_hvt = -1.2E-9        dwvth0_p_hvt = -1.6E-9        
+dpvth0_p_hvt = -1.16E-16      du0_p_hvt = -8.8E-4           dlu0_p_hvt = 1.74E-10         
+dwu0_p_hvt = -1.36E-10        dpu0_p_hvt = 3.16E-17         dvsat_p_hvt = 0               
+dcj_p_hvt = -7.92E-6          dcjsw_p_hvt = -3.366E-12      dcjswg_p_hvt = -2.066E-11     
+dcgso_p_hvt = 2.61E-12        dcgdo_p_hvt = 2.61E-12        dcgsl_p_hvt = 2.16E-12        
+dcgdl_p_hvt = 2.16E-12        
include "gpdk045_mos.scs"   section = stat_mis_hvt
include "gpdk045_mos.scs"   section = mos_hvt
endsection  ss_hvt

section  fs_hvt
parameters
+tox_n_hvt = 2.41E-9           dxl_n_hvt = 0                 
+dxw_n_hvt = 0                 dvth0_n_hvt = -0.0188         dlvth0_n_hvt = -2.85E-10      
+dwvth0_n_hvt = -1.4E-9        dpvth0_n_hvt = -4.15E-17      du0_n_hvt = -7.4E-5           
+dlu0_n_hvt = -2.49E-11        dwu0_n_hvt = 6.4E-11          dpu0_n_hvt = -2.52E-18        
+dvsat_n_hvt = 0               dcj_n_hvt = -6.6E-5           dcjsw_n_hvt = -2.706E-12      
+dcjswg_n_hvt = -2.059E-11     dcgso_n_hvt = 0               dcgdo_n_hvt = 0               
+dcgsl_n_hvt = 0               dcgdl_n_hvt = 0               
+tox_p_hvt = 2.4E-9            dxl_p_hvt = 0                 dxw_p_hvt = 0                 
+dvth0_p_hvt = -0.01322        dlvth0_p_hvt = -5E-10         dwvth0_p_hvt = -7E-10         
+dpvth0_p_hvt = -4.55E-17      du0_p_hvt = -5E-4             dlu0_p_hvt = 5.4E-11          
+dwu0_p_hvt = -1.4E-10         dpu0_p_hvt = 6.1E-18          dvsat_p_hvt = 0               
+dcj_p_hvt = -7.92E-6          dcjsw_p_hvt = -3.366E-12      dcjswg_p_hvt = -2.066E-11     
+dcgso_p_hvt = 0               dcgdo_p_hvt = 0               dcgsl_p_hvt = 0               
+dcgdl_p_hvt = 0               
include "gpdk045_mos.scs"   section = stat_mis_hvt
include "gpdk045_mos.scs"   section = mos_hvt
endsection  fs_hvt

section  sf_hvt
parameters
+tox_n_hvt = 2.41E-9           dxl_n_hvt = 0                 
+dxw_n_hvt = 0                 dvth0_n_hvt = 0.01627         dlvth0_n_hvt = 3.75E-10       
+dwvth0_n_hvt = 1.27E-9        dpvth0_n_hvt = 3.6E-17        du0_n_hvt = -1E-4             
+dlu0_n_hvt = 3.7348E-11       dwu0_n_hvt = -9.1E-11         dpu0_n_hvt = 2.25E-18         
+dvsat_n_hvt = 0               dcj_n_hvt = 6.6E-5            dcjsw_n_hvt = 2.706E-12       
+dcjswg_n_hvt = 2.059E-11      dcgso_n_hvt = 0               dcgdo_n_hvt = 0               
+dcgsl_n_hvt = 0               dcgdl_n_hvt = 0               
+tox_p_hvt = 2.4E-9            dxl_p_hvt = 0                 dxw_p_hvt = 0                 
+dvth0_p_hvt = 0.0138          dlvth0_p_hvt = 4.6E-10        dwvth0_p_hvt = 1.7E-9         
+dpvth0_p_hvt = -4E-17         du0_p_hvt = 3.7E-4            dlu0_p_hvt = -5.3E-11         
+dwu0_p_hvt = 4.4E-11          dpu0_p_hvt = 4.892E-18        dvsat_p_hvt = 0               
+dcj_p_hvt = -7.92E-6          dcjsw_p_hvt = -3.366E-12      dcjswg_p_hvt = -2.066E-11     
+dcgso_p_hvt = 0               dcgdo_p_hvt = 0               dcgsl_p_hvt = 0               
+dcgdl_p_hvt = 0               
include "gpdk045_mos.scs"   section = stat_mis_hvt
include "gpdk045_mos.scs"   section = mos_hvt
endsection  sf_hvt


section mc_hvt
parameters
+a5 = random5                  a6 = random6                  
+a7 = random7                  a8 = random8   
+tox_n_hvt = 2.41e-9+5.84e-13*a5-1.303e-11*a6+3.04e-13*a7+2.88485e-13*a8 
+dxl_n_hvt = 0-3.782e-11*a5-1.3e-9*a6-1.9389e-10*a7+4.773e-10*a8 
+dxw_n_hvt = 0-1.31579e-9*a5+1.49e-9*a6-7.03e-10*a7-1.886e-10*a8 
+dvth0_n_hvt = 0-7.308901e-3*a5-6.0868e-3*a6+3.6582e-3*a7+5.763858e-3*a8 
+dlvth0_n_hvt = 0-6.220345e-11*a5-5.49e-11*a6+3.264395e-10*a7-1.324004e-10*a8 
+dwvth0_n_hvt = 0-2.9703e-10*a5-5.139e-10*a6+1.7373e-10*a7+3.3967e-10*a8 
+dpvth0_n_hvt = 0-9.056006e-18*a5-5.4894e-17*a6+3.364179e-18*a7+1.266909e-17*a8 
+du0_n_hvt = 0-1.04591e-5*a5-3.4665e-5*a6-3.970954e-5*a7+1.266909e-17*a8 
+dlu0_n_hvt = 0-1.412762e-12*a5-1.714e-11*a6+2.617e-11*a7+7.439915e-12*a8 
+dwu0_n_hvt = 0+2.13e-11*a5+1.6e-11*a6-4.62e-11*a7-3e-12*a8 
+dpu0_n_hvt = 0-6.5632e-19*a5-3.22407e-18*a6-1.621752e-19*a7-6.461331e-19*a8 
+dvsat_n_hvt = 0+0*a5+0*a6+0*a7+0*a8 
+dcj_n_hvt = 1.54e-5*a5-5.5e-6*a6-1.35e-5*a7+1.34e-6*a8 
+dcjsw_n_hvt = 4.06e-8*(1.54e-5*a5-5.5e-6*a6-1.35e-5*a7+1.34e-6*a8) 
+dcjswg_n_hvt = 3.09e-7*(1.54e-5*a5-5.5e-6*a6-1.35e-5*a7+1.34e-6*a8) 
+dcgso_n_hvt = -0.113*(5.84e-13*a5-1.303e-11*a6+3.04e-13*a7+2.88485e-13*a8) 
+dcgdo_n_hvt = -0.113*(5.84e-13*a5-1.303e-11*a6+3.04e-13*a7+2.88485e-13*a8) 
+dcgsl_n_hvt = -0.0272*(5.84e-13*a5-1.303e-11*a6+3.04e-13*a7+2.88485e-13*a8) 
+dcgdl_n_hvt = -0.0272*(5.84e-13*a5-1.303e-11*a6+3.04e-13*a7+2.88485e-13*a8)
+tox_p_hvt = 2.41e-9-3.4e-13*a5-1.1903e-11*a6-5.1e-13*a7+5.7697e-12*a8 
+dxl_p_hvt = 0-3.1e-11*a5-1.4e-9*a6-1.405e-10*a7+3.7e-10*a8 
+dxw_p_hvt = 0+1.8797e-10*a5+2.7e-9*a6-9.5e-10*a7-2.3e-10*a8 
+dvth0_p_hvt = 0-4.406976e-3*a5-4.66696e-3*a6+5.860787e-3*a7+3.048809e-3*a8 
+dlvth0_p_hvt = 0-1.51827e-10*a5-2.6168e-11*a6+2.361942e-10*a7-7.454963e-11*a8 
+dwvth0_p_hvt = 0-1.8027e-10*a5-5.231e-10*a6+2.073e-10*a7+3.0967e-10*a8 
+dpvth0_p_hvt = 0-1.46e-18*a5+3.086e-18*a6+3.9e-18*a7+7.7e-18*a8 
+du0_p_hvt = 0-2.7018e-5*a5-3.718e-4*a6-4.411961e-6*a7+7.7e-18*a8 
+dlu0_p_hvt = 0+1.9841e-11*a5-1e-12*a6-2.585e-11*a7+5.04455e-12*a8 
+dwu0_p_hvt = 0-7.13e-11*a5-8.713e-11*a6-2e-13*a7+3.1e-11*a8 
+dpu0_p_hvt = 0+1.11e-18*a5-5.174e-18*a6-3.34e-19*a7-1.94e-18*a8 
+dvsat_p_hvt = 0+0*a5+0*a6+0*a7+0*a8 
+dcj_p_hvt = 2.01e-6*a5-6.06e-7*a6-1.404e-6*a7+1.73e-7*a8 
+dcjsw_p_hvt = 4.25e-7*(2.01e-6*a5-6.06e-7*a6-1.404e-6*a7+1.73e-7*a8) 
+dcjswg_p_hvt = 2.608e-6*(2.01e-6*a5-6.06e-7*a6-1.404e-6*a7+1.73e-7*a8) 
+dcgso_p_hvt = -0.0653*(-3.4e-13*a5-1.1903e-11*a6-5.1e-13*a7+5.7697e-12*a8) 
+dcgdo_p_hvt = -0.0653*(-3.4e-13*a5-1.1903e-11*a6-5.1e-13*a7+5.7697e-12*a8) 
+dcgsl_p_hvt = -0.05404*(-3.4e-13*a5-1.1903e-11*a6-5.1e-13*a7+5.7697e-12*a8) 
+dcgdl_p_hvt = -0.05404*(-3.4e-13*a5-1.1903e-11*a6-5.1e-13*a7+5.7697e-12*a8)
include "gpdk045_mos.scs"   section = stat_mis_hvt 
include "gpdk045_mos.scs"   section = mos_hvt
endsection mc_hvt

section  tt_lvt
parameters
+tox_n_lvt = 2.41E-9           dxl_n_lvt = 0                 
+dxw_n_lvt = 0                 dvth0_n_lvt = 0               dlvth0_n_lvt = 0              
+dwvth0_n_lvt = 0              dpvth0_n_lvt = 0              du0_n_lvt = 0                 
+dlu0_n_lvt = 0                dwu0_n_lvt = 0                dpu0_n_lvt = 0                
+dvsat_n_lvt = 0               dcj_n_lvt = 0                 dcjsw_n_lvt = 0               
+dcjswg_n_lvt = 0              dcgso_n_lvt = 0               dcgdo_n_lvt = 0               
+dcgsl_n_lvt = 0               dcgdl_n_lvt = 0               
+tox_p_lvt = 2.4E-9            dxl_p_lvt = 0                 dxw_p_lvt = 0                 
+dvth0_p_lvt = 0               dlvth0_p_lvt = 0              dwvth0_p_lvt = 0              
+dpvth0_p_lvt = 0              du0_p_lvt = 0                 dlu0_p_lvt = 0                
+dwu0_p_lvt = 0                dpu0_p_lvt = 0                dvsat_p_lvt = 0               
+dcj_p_lvt = 0                 dcjsw_p_lvt = 0               dcjswg_p_lvt = 0              
+dcgso_p_lvt = 0               dcgdo_p_lvt = 0               dcgsl_p_lvt = 0               
+dcgdl_p_lvt = 0               
parameters dpvsat_n_lvt = 0
include "gpdk045_mos.scs"   section = stat_mis_lvt
include "gpdk045_mos.scs"   section = mos_lvt
endsection  tt_lvt

section  ff_lvt
parameters
+tox_n_lvt = 2.37E-9           dxl_n_lvt = -3.795E-9         
+dxw_n_lvt = 9.6E-9            dvth0_n_lvt = -0.0364         dlvth0_n_lvt = -5.5E-10       
+dwvth0_n_lvt = -3.6E-9        dpvth0_n_lvt = -1.21E-16      du0_n_lvt = 2.2E-4            
+dlu0_n_lvt = -6E-11           dwu0_n_lvt = -3.3E-11         dpu0_n_lvt = -3.4E-18         
+dvsat_n_lvt = 0               dcj_n_lvt = -4.561E-5         dcjsw_n_lvt = -3.762E-12      
+dcjswg_n_lvt = -1.32E-11      dcgso_n_lvt = 5.247E-12       dcgdo_n_lvt = 5.247E-12       
+dcgsl_n_lvt = 1.89E-12        dcgdl_n_lvt = 1.89E-12        
+tox_p_lvt = 2.36E-9           dxl_p_lvt = -3.81E-9          dxw_p_lvt = 9.6E-9            
+dvth0_p_lvt = 0.029           dlvth0_p_lvt = 8.6E-10        dwvth0_p_lvt = 3.12E-9        
+dpvth0_p_lvt = 1.16E-16       du0_p_lvt = 8.6E-4            dlu0_p_lvt = -6.3E-11         
+dwu0_p_lvt = -4E-11           dpu0_p_lvt = -1.64E-17        dvsat_p_lvt = 0               
+dcj_p_lvt = -5.4648E-5        dcjsw_p_lvt = -4.686E-12      dcjswg_p_lvt = -1.3398E-11    
+dcgso_p_lvt = 3.33E-12        dcgdo_p_lvt = 3.33E-12        dcgsl_p_lvt = 3.6E-12         
+dcgdl_p_lvt = 3.6E-12         
parameters dpvsat_n_lvt = 0
include "gpdk045_mos.scs"   section = stat_mis_lvt
include "gpdk045_mos.scs"   section = mos_lvt
endsection  ff_lvt


section  ss_lvt
parameters
+tox_n_lvt = 2.45E-9           dxl_n_lvt = 3.795E-9          
+dxw_n_lvt = -9.6E-9           dvth0_n_lvt = 0.0338          dlvth0_n_lvt = 8.55E-10       
+dwvth0_n_lvt = 2.96E-9        dpvth0_n_lvt = 9.8E-17        du0_n_lvt = -4.57E-4          
+dlu0_n_lvt = 7.95E-11         dwu0_n_lvt = -4.3E-11         dpu0_n_lvt = 5.14E-18         
+dvsat_n_lvt = 0               dcj_n_lvt = 4.561E-5          dcjsw_n_lvt = 3.762E-12       
+dcjswg_n_lvt = 1.32E-11       dcgso_n_lvt = -5.247E-12      dcgdo_n_lvt = -5.247E-12      
+dcgsl_n_lvt = -1.89E-12       dcgdl_n_lvt = -1.89E-12       
+tox_p_lvt = 2.44E-9           dxl_p_lvt = 3.81E-9           dxw_p_lvt = -9.6E-9           
+dvth0_p_lvt = -0.0272         dlvth0_p_lvt = -1E-9          dwvth0_p_lvt = -2.4E-9        
+dpvth0_p_lvt = -1.1E-16       du0_p_lvt = -1.14E-3          dlu0_p_lvt = 7.4E-11          
+dwu0_p_lvt = -9.8E-11         dpu0_p_lvt = 2.26E-17         dvsat_p_lvt = 0               
+dcj_p_lvt = 5.4648E-5         dcjsw_p_lvt = 4.686E-12       dcjswg_p_lvt = 1.3398E-11     
+dcgso_p_lvt = -3.33E-12       dcgdo_p_lvt = -3.33E-12       dcgsl_p_lvt = -3.6E-12        
+dcgdl_p_lvt = -3.6E-12        
parameters dpvsat_n_lvt = 0