simulator lang=spectre
library  gpdk045
//  ******************************************************************************
//  ****************************************************************************
//                                                                             *
//        THIS MODEL LIB CONTAINS :                                            *
//                                                                             *
//        1.LIB TTCAP							       *
//              FFCAP							       *
//		SSCAP							       *	
//		FSCAP							       *
//		SFCAP							       *	
//		MCCAP                                               	       *
//    ( 1.1V Standard-Vt devices with different geometric,statistical, mimatch *
//	     and corner models. )					       *
//                                                                             *
//        5.LIB TTCAP_18                                                          *
//	        FFCAP_18                                                          *
//	        SSCAP_18                                                          *
//	        FSCAP_18                                                          *
//	        SFCAP_18                                                          *
//	        MCCAP_18                                                          *
//    ( 1.8V devices with different geometric, statistical, mismatch and       *
//	     corner models.  )    		               		       *


section  ttcap
parameters
+tox_n_cap = 2.41E-9                       dxl_n_cap = 0                     
+dxw_n_cap = 0                     dvth0_n_cap = 0                   dlvth0_n_cap = 0                  
+dwvth0_n_cap = 0                  dpvth0_n_cap = 0                  du0_n_cap = 0                     
+dlu0_n_cap = 0                    dwu0_n_cap = 0                    dpu0_n_cap = 0                    
+dvsat_n_cap = 0                   dcj_n_cap = 0                     dcjsw_n_cap = 0                   
+dcjswg_n_cap = 0                  dcgso_n_cap = 0                   dcgdo_n_cap = 0                   
+dcgsl_n_cap = 0                   dcgdl_n_cap = 0                                      
+tox_p_cap = 2.4E-9                     dvth0_p_cap = 0                   dlvth0_p_cap = 0                  
+dwvth0_p_cap = 0                  dpvth0_p_cap = 0                  dxl_p_cap = 0                     
+dxw_p_cap = 0                     du0_p_cap = 0                     dlu0_p_cap = 0                    
+dwu0_p_cap = 0                    dpu0_p_cap = 0                    dvsat_p_cap = 0                   
+dcj_p_cap = 0                     dcjsw_p_cap = 0                   dcjswg_p_cap = 0                  
+dcgso_p_cap = 0                   dcgdo_p_cap = 0                   dcgsl_p_cap = 0                   
+dcgdl_p_cap = 0                   
include "gpdk045_moscap.scs"   section = moscap
include "gpdk045_moscap.scs"   section = s1v_mac
endsection  ttcap

section  ffcap
parameters
+tox_n_cap = 2.37E-9               dxl_n_cap = -4.4E-9               
+dxw_n_cap = 9E-9                  dvth0_n_cap = -0.035              dlvth0_n_cap = -6.4E-10           
+dwvth0_n_cap = -3.58E-9           dpvth0_n_cap = -1.18E-16          du0_n_cap = 6E-5                  
+dlu0_n_cap = -8.1E-11             dwu0_n_cap = -2.2E-11             dpu0_n_cap = -3.84E-18            
+dvsat_n_cap = 0                   dcj_n_cap = -5.682E-5             dcjsw_n_cap = -3.2142E-12         
+dcjswg_n_cap = -1.6896E-11        dcgso_n_cap = 4.98E-12            dcgdo_n_cap = 4.98E-12            
+dcgsl_n_cap = 1.539E-12           dcgdl_n_cap = 1.539E-12           
+tox_p_cap = 2.36E-9               dvth0_p_cap = 0.0292              dlvth0_p_cap = 9E-10              
+dwvth0_p_cap = 2.6E-9             dpvth0_p_cap = 8.7E-17            dxl_p_cap = -4.4E-9               
+dxw_p_cap = 9E-9                  du0_p_cap = 6.8E-4                dlu0_p_cap = -7.8E-11             
+dwu0_p_cap = 2E-12                dpu0_p_cap = -1.34E-17            dvsat_p_cap = 0                   
+dcj_p_cap = -6.5868E-5            dcjsw_p_cap = -4.098E-12          dcjswg_p_cap = -1.6698E-11        
+dcgso_p_cap = 2.79E-12            dcgdo_p_cap = 2.79E-12            dcgsl_p_cap = 4.86E-12            
+dcgdl_p_cap = 4.86E-12            
include "gpdk045_moscap.scs"   section = moscap
include "gpdk045_moscap.scs"   section = s1v_mac
endsection  ffcap

section  sscap
parameters
+tox_n_cap = 2.45E-9               dxl_n_cap = 4.4E-9                
+dxw_n_cap = -9E-9                 dvth0_n_cap = 0.036               dlvth0_n_cap = 8.42E-10           
+dwvth0_n_cap = 2.976E-9           dpvth0_n_cap = 1.18E-16           du0_n_cap = -2.07E-4              
+dlu0_n_cap = 1.172E-10            dwu0_n_cap = -6.33E-11            dpu0_n_cap = 9.342E-18            
+dvsat_n_cap = 0                   dcj_n_cap = 5.682E-5              dcjsw_n_cap = 3.2142E-12          
+dcjswg_n_cap = 1.6896E-11         dcgso_n_cap = -4.98E-12           dcgdo_n_cap = -4.98E-12           
+dcgsl_n_cap = -1.539E-12          dcgdl_n_cap = -1.539E-12          
+tox_p_cap = 2.44E-9               dvth0_p_cap = -0.029              dlvth0_p_cap = -1.04E-9           
+dwvth0_p_cap = -1.9E-9            dpvth0_p_cap = -9E-17             dxl_p_cap = 4.4E-9                
+dxw_p_cap = -9E-9                 du0_p_cap = -9.6E-4               dlu0_p_cap = 1.18E-10             
+dwu0_p_cap = -1.22E-10            dpu0_p_cap = 1.97E-17             dvsat_p_cap = 0                   
+dcj_p_cap = 6.5868E-5             dcjsw_p_cap = 4.098E-12           dcjswg_p_cap = 1.6698E-11         
+dcgso_p_cap = -2.79E-12           dcgdo_p_cap = -2.79E-12           dcgsl_p_cap = -4.86E-12           
+dcgdl_p_cap = -4.86E-12           
include "gpdk045_moscap.scs"   section = moscap
include "gpdk045_moscap.scs"   section = s1v_mac
endsection  sscap

section  fscap
parameters
+tox_n_cap = 2.41E-9               dxl_n_cap = 0                     
+dxw_n_cap = 0                     dvth0_n_cap = -0.0175             dlvth0_n_cap = -4.13744E-10       
+dwvth0_n_cap = -1.271456E-9       dpvth0_n_cap = -4.57276E-17       du0_n_cap = 7E-5                  
+dlu0_n_cap = -2.1E-11             dwu0_n_cap = 7.641E-11            dpu0_n_cap = -7.68E-19            
+dvsat_n_cap = 0                   dcj_n_cap = -5.682E-5             dcjsw_n_cap = -3.2142E-12         
+dcjswg_n_cap = -1.6896E-11        dcgso_n_cap = 0                   dcgdo_n_cap = 0                   
+dcgsl_n_cap = 0                   dcgdl_n_cap = 0                   
+tox_p_cap = 2.4E-9                dvth0_p_cap = -0.0145             dlvth0_p_cap = -3.8E-10           
+dwvth0_p_cap = -9.5E-10           dpvth0_p_cap = -9E-18             dxl_p_cap = 0                     
+dxw_p_cap = 0                     du0_p_cap = -4.8E-4               dlu0_p_cap = 3.5E-11              
+dwu0_p_cap = -1.27E-10            dpu0_p_cap = -8.2E-18             dvsat_p_cap = 0                   
+dcj_p_cap = 6.5868E-5             dcjsw_p_cap = 4.098E-12           dcjswg_p_cap = 1.6698E-11         
+dcgso_p_cap = 0                   dcgdo_p_cap = 0                   dcgsl_p_cap = 0                   
+dcgdl_p_cap = 0                   
include "gpdk045_moscap.scs"   section = moscap
include "gpdk045_moscap.scs"   section = s1v_mac
endsection  fscap

section  sfcap
parameters
+tox_n_cap = 2.41E-9               dxl_n_cap = 0                     
+dxw_n_cap = 0                     dvth0_n_cap = 0.018               dlvth0_n_cap = 3.61E-10           
+dwvth0_n_cap = 1.088E-9           dpvth0_n_cap = 5.1E-17            du0_n_cap = -1.0825E-4            
+dlu0_n_cap = 1.86E-11             dwu0_n_cap = -1.023E-10           dpu0_n_cap = 1.67232E-18          
+dvsat_n_cap = 0                   dcj_n_cap = 5.682E-5              dcjsw_n_cap = 3.2142E-12          
+dcjswg_n_cap = 1.6896E-11         dcgso_n_cap = 0                   dcgdo_n_cap = 0                   
+dcgsl_n_cap = 0                   dcgdl_n_cap = 0                   
+tox_p_cap = 2.4E-9                dvth0_p_cap = 0.0136              dlvth0_p_cap = 4.6E-10            
+dwvth0_p_cap = 1.2E-9             dpvth0_p_cap = 2.55E-17           dxl_p_cap = 0                     
+dxw_p_cap = 0                     du0_p_cap = 4.6E-4                dlu0_p_cap = -4E-11               
+dwu0_p_cap = 8.948E-11            dpu0_p_cap = -1.4E-18             dvsat_p_cap = 0                   
+dcj_p_cap = -6.5868E-5            dcjsw_p_cap = -4.098E-12          dcjswg_p_cap = -1.6698E-11        
+dcgso_p_cap = 0                   dcgdo_p_cap = 0                   dcgsl_p_cap = 0                   
+dcgdl_p_cap = 0                   
include "gpdk045_moscap.scs"   section = moscap
include "gpdk045_moscap.scs"   section = s1v_mac
endsection  sfcap

section mccap   
parameters
+random1_cap = 0                   random2_cap = 0                   random3_cap = 0                   
+random4_cap = 0     
statistics {
    process {
        vary random1_cap dist=gauss std=1/1
        vary random2_cap dist=gauss std=1/1
        vary random3_cap dist=gauss std=1/1
        vary random4_cap dist=gauss std=1/1                        
        }
    }       
parameters
+a1_cap = random1_cap                  a2_cap = random2_cap                  
+a3_cap = random3_cap                  a4_cap = random4_cap       

parameters
+tox_n_cap = 2.41e-9-3.4e-13*a1_cap-1.1903e-11*a2_cap-5.1e-13*a3_cap+5.7697e-12*a4_cap 
+dxl_n_cap = 0-3.1e-11*a1_cap-1.4e-9*a2_cap-1.405e-10*a3_cap+3.7e-10*a4_cap 
+dxw_n_cap = 0+1.8797e-10*a1_cap+2.7e-9*a2_cap-9.5e-10*a3_cap-2.3e-10*a4_cap 
+dvth0_n_cap = 0-6.3e-3*a1_cap-4.9519e-3*a2_cap+6.3164e-3*a3_cap+3.8623e-3*a4_cap 
+dlvth0_n_cap = 0-6.89e-11*a1_cap-1.83e-10*a2_cap+2.4158e-10*a3_cap-7.5252e-11*a4_cap 
+dwvth0_n_cap = 0-2.9703e-10*a1_cap-5.39e-11*a2_cap+7.373e-10*a3_cap+3.3967e-10*a4_cap 
+dpvth0_n_cap = 0-4.32e-17*a1_cap+4.786e-18*a2_cap+1.49e-17*a3_cap+2.8e-17*a4_cap 
+du0_n_cap = 0+8e-5*a1_cap-4.848e-5*a2_cap-7.86e-5*a3_cap+2.8e-17*a4_cap 
+dlu0_n_cap = 0-2.1e-12*a1_cap-2.7e-11*a2_cap+1.48e-11*a3_cap-1.1e-12*a4_cap 
+dwu0_n_cap = 0-1.13e-11*a1_cap+1.4e-11*a2_cap-3.62e-11*a3_cap-3e-12*a4_cap 
+dpu0_n_cap = 0+5e-19*a1_cap-2.4e-19*a2_cap+3.751e-18*a3_cap-3.4e-19*a4_cap 
+dvsat_n_cap = 0+0*a1_cap+0*a2_cap+0*a3_cap+0*a4_cap 
+dcgso_n_cap = -0.1245*(-3.4e-13*a1_cap-1.1903e-11*a2_cap-5.1e-13*a3_cap+5.7697e-12*a4_cap) 
+dcgdo_n_cap = -0.1245*(-3.4e-13*a1_cap-1.1903e-11*a2_cap-5.1e-13*a3_cap+5.7697e-12*a4_cap) 
+dcgsl_n_cap = -0.0385*(-3.4e-13*a1_cap-1.1903e-11*a2_cap-5.1e-13*a3_cap+5.7697e-12*a4_cap) 
+dcgdl_n_cap = -0.0385*(-3.4e-13*a1_cap-1.1903e-11*a2_cap-5.1e-13*a3_cap+5.7697e-12*a4_cap) 
+dcj_n_cap = 1.14e-5*a1_cap-5.2e-6*a2_cap-1.31e-5*a3_cap+1.34e-6*a4_cap 
+dcjsw_n_cap = 5.66e-8*(1.14e-5*a1_cap-5.2e-6*a2_cap-1.31e-5*a3_cap+1.34e-6*a4_cap) 
+dcjswg_n_cap = 2.975e-7*(1.14e-5*a1_cap-5.2e-6*a2_cap-1.31e-5*a3_cap+1.34e-6*a4_cap)
+tox_p_cap = 2.4e-9-3.4e-13*a1_cap-1.1903e-11*a2_cap-5.1e-13*a3_cap+5.7697e-12*a4_cap 
+dxl_p_cap = 0-3.1e-11*a1_cap-1.4e-9*a2_cap-1.405e-10*a3_cap+3.7e-10*a4_cap 
+dxw_p_cap = 0+1.8797e-10*a1_cap+2.7e-9*a2_cap-9.5e-10*a3_cap-2.3e-10*a4_cap 
+dvth0_p_cap = 0-5.50872e-3*a1_cap-3.06696e-3*a2_cap+5.860787e-3*a3_cap+3.048809e-3*a4_cap 
+dlvth0_p_cap = 0-2.9e-11*a1_cap-1.7e-10*a2_cap+2.158e-10*a3_cap-7.5252e-11*a4_cap 
+dwvth0_p_cap = 0-2.003e-10*a1_cap-6.539e-10*a2_cap+2.073e-10*a3_cap+3.0967e-10*a4_cap 
+dpvth0_p_cap = 0-4.8e-18*a1_cap+4.786e-18*a2_cap+2.9e-18*a3_cap+2.8e-17*a4_cap 
+du0_p_cap = 0-1.61018e-4*a1_cap-4.05e-4*a2_cap-4.1196e-6*a3_cap+2.8e-17*a4_cap 
+dlu0_p_cap = 0+2.5e-11*a1_cap+2.053e-11*a2_cap+8e-13*a3_cap+2e-12*a4_cap 
+dwu0_p_cap = 0-7.13e-11*a1_cap-8.154e-11*a2_cap-2e-13*a3_cap+3.1e-11*a4_cap 
+dpu0_p_cap = 0+9.98e-19*a1_cap-6.921e-18*a2_cap-2.1e-19*a3_cap-1.94e-18*a4_cap 
+dvsat_p_cap = 0+0*a1_cap+0*a2_cap+0*a3_cap+0*a4_cap 
+dcgso_p_cap = -0.06975*(-3.4e-13*a1_cap-1.1903e-11*a2_cap-5.1e-13*a3_cap+5.7697e-12*a4_cap) 
+dcgdo_p_cap = -0.06975*(-3.4e-13*a1_cap-1.1903e-11*a2_cap-5.1e-13*a3_cap+5.7697e-12*a4_cap) 
+dcgsl_p_cap = -0.1215*(-3.4e-13*a1_cap-1.1903e-11*a2_cap-5.1e-13*a3_cap+5.7697e-12*a4_cap) 
+dcgdl_p_cap = -0.1215*(-3.4e-13*a1_cap-1.1903e-11*a2_cap-5.1e-13*a3_cap+5.7697e-12*a4_cap) 
+dcj_p_cap = 1.443e-5*a1_cap-5.55e-6*a2_cap-1.42e-5*a3_cap+9.4e-7*a4_cap 
+dcjsw_p_cap = 6.22e-8*(1.443e-5*a1_cap-5.55e-6*a2_cap-1.42e-5*a3_cap+9.4e-7*a4_cap) 
+dcjswg_p_cap = 2.536e-7*(1.443e-5*a1_cap-5.55e-6*a2_cap-1.42e-5*a3_cap+9.4e-7*a4_cap)  
include "gpdk045_moscap.scs"   section = moscap
include "gpdk045_moscap.scs"   section = s1v_mac
endsection mccap


section  ttcap_18
parameters
+tox_n_18_cap = 3.62E-9                                 dxl_n_18_cap = 0                  
+dxw_n_18_cap = 0                  dvth0_n_18_cap = 0                dlvth0_n_18_cap = 0               
+dwvth0_n_18_cap = 0               dpvth0_n_18_cap = 0               du0_n_18_cap = 0                  
+dlu0_n_18_cap = 0                 dwu0_n_18_cap = 0                 dpu0_n_18_cap = 0                 
+dvsat_n_18_cap = 0                dcj_n_18_cap = 0                  dcjsw_n_18_cap = 0                
+dcjswg_n_18_cap = 0               dcgso_n_18_cap = 0                dcgdo_n_18_cap = 0                
+dcgsl_n_18_cap = 0                dcgdl_n_18_cap = 0                                  
+tox_p_18_cap = 3.62E-9                  dxl_p_18_cap = 0                  dxw_p_18_cap = 0                  
+dvth0_p_18_cap = 0                dlvth0_p_18_cap = 0               dwvth0_p_18_cap = 0               
+dpvth0_p_18_cap = 0               du0_p_18_cap = 0                  dlu0_p_18_cap = 0                 
+dwu0_p_18_cap = 0                 dpu0_p_18_cap = 0                 dvsat_p_18_cap = 0                
+dcj_p_18_cap = 0                  dcjsw_p_18_cap = 0                dcjswg_p_18_cap = 0               
+dcgso_p_18_cap = 0                dcgdo_p_18_cap = 0                dcgsl_p_18_cap = 0                
+dcgdl_p_18_cap = 0                
include "gpdk045_moscap.scs"   section = moscap18
include "gpdk045_moscap.scs"   section = s1p8v_mac
endsection  ttcap_18

section  ffcap_18
parameters
+tox_n_18_cap = 3.49E-9            dxl_n_18_cap = -9E-9              
+dxw_n_18_cap = 9E-9               dvth0_n_18_cap = -0.0374          dlvth0_n_18_cap = -4E-9           
+dwvth0_n_18_cap = -6.6E-9         dpvth0_n_18_cap = -2.5E-16        du0_n_18_cap = 1.26E-3            
+dlu0_n_18_cap = -3.44E-10         dwu0_n_18_cap = 4.6E-11           dpu0_n_18_cap = 4E-18             
+dvsat_n_18_cap = 0                dcj_n_18_cap = -5.55E-5           dcjsw_n_18_cap = -6.732E-12       
+dcjswg_n_18_cap = -7.92E-12       dcgso_n_18_cap = 2.817E-12        dcgdo_n_18_cap = 2.817E-12        
+dcgsl_n_18_cap = 2.43E-12         dcgdl_n_18_cap = 2.43E-12         
+tox_p_18_cap = 3.49E-9            dxl_p_18_cap = -9E-9              dxw_p_18_cap = 9E-9               
+dvth0_p_18_cap = 0.03594          dlvth0_p_18_cap = 4.12E-9         dwvth0_p_18_cap = 2.8E-9          
+dpvth0_p_18_cap = 1.7232E-16      du0_p_18_cap = 1.44E-3            dlu0_p_18_cap = -2.28E-10         
+dwu0_p_18_cap = 2.4E-11           dpu0_p_18_cap = 8E-18             dvsat_p_18_cap = 0                
+dcj_p_18_cap = -6.402E-5          dcjsw_p_18_cap = -7.26E-12        dcjswg_p_18_cap = -1.518E-11      
+dcgso_p_18_cap = 1.98E-12         dcgdo_p_18_cap = 1.98E-12         dcgsl_p_18_cap = 9E-12            
+dcgdl_p_18_cap = 9E-12            
include "gpdk045_moscap.scs"   section = moscap18
include "gpdk045_moscap.scs"   section = s1p8v_mac
endsection  ffcap_18

section  sscap_18
parameters
+tox_n_18_cap = 3.75E-9            dxl_n_18_cap = 9E-9               
+dxw_n_18_cap = -9E-9              dvth0_n_18_cap = 0.0346           dlvth0_n_18_cap = 4.08E-9         
+dwvth0_n_18_cap = 6.4E-9          dpvth0_n_18_cap = 2.214E-16       du0_n_18_cap = -1.802E-3          
+dlu0_n_18_cap = 2.62E-10          dwu0_n_18_cap = -2.2E-10          dpu0_n_18_cap = -7.3E-18          
+dvsat_n_18_cap = 0                dcj_n_18_cap = 5.55E-5            dcjsw_n_18_cap = 6.732E-12        
+dcjswg_n_18_cap = 7.92E-12        dcgso_n_18_cap = -2.817E-12       dcgdo_n_18_cap = -2.817E-12       
+dcgsl_n_18_cap = -2.43E-12        dcgdl_n_18_cap = -2.43E-12        
+tox_p_18_cap = 3.75E-9            dxl_p_18_cap = 9E-9               dxw_p_18_cap = -9E-9              
+dvth0_p_18_cap = -0.034           dlvth0_p_18_cap = -3.6E-9         dwvth0_p_18_cap = -2.4E-9         
+dpvth0_p_18_cap = -3.56E-16       du0_p_18_cap = -1.8E-3            dlu0_p_18_cap = 1.13E-10          
+dwu0_p_18_cap = -1.08E-10         dpu0_p_18_cap = 1E-17             dvsat_p_18_cap = 0                
+dcj_p_18_cap = 6.402E-5           dcjsw_p_18_cap = 7.26E-12         dcjswg_p_18_cap = 1.518E-11       
+dcgso_p_18_cap = -1.98E-12        dcgdo_p_18_cap = -1.98E-12        dcgsl_p_18_cap = -9E-12           
+dcgdl_p_18_cap = -9E-12           
include "gpdk045_moscap.scs"   section = moscap18
include "gpdk045_moscap.scs"   section = s1p8v_mac
endsection  sscap_18


section  fscap_18
parameters
+tox_n_18_cap = 3.62E-9            dxl_n_18_cap = 0                  
+dxw_n_18_cap = 0                  dvth0_n_18_cap = -0.0187          dlvth0_n_18_cap = -2E-9           
+dwvth0_n_18_cap = -2.9E-9         dpvth0_n_18_cap = -3.5E-17        du0_n_18_cap = 8E-4               
+dlu0_n_18_cap = 0                 dwu0_n_18_cap = 1.8E-10           dpu0_n_18_cap = 5.264E-17         
+dvsat_n_18_cap = 0                dcj_n_18_cap = -5.55E-5           dcjsw_n_18_cap = -6.732E-12       
+dcjswg_n_18_cap = -7.92E-12       dcgso_n_18_cap = 0                dcgdo_n_18_cap = 0                
+dcgsl_n_18_cap = 0                dcgdl_n_18_cap = 0                
+tox_p_18_cap = 3.62E-9            dxl_p_18_cap = 0                  dxw_p_18_cap = 0                  
+dvth0_p_18_cap = -0.017           dlvth0_p_18_cap = -1.2E-9         dwvth0_p_18_cap = -1.3E-9         
+dpvth0_p_18_cap = -1.86E-16       du0_p_18_cap = -8.6E-4            dlu0_p_18_cap = -7.3E-11          
+dwu0_p_18_cap = -1.28E-10         dpu0_p_18_cap = 3E-19             dvsat_p_18_cap = 0                
+dcj_p_18_cap = 6.402E-5           dcjsw_p_18_cap = 7.26E-12         dcjswg_p_18_cap = 1.518E-11       
+dcgso_p_18_cap = 0                dcgdo_p_18_cap = 0                dcgsl_p_18_cap = 0                
+dcgdl_p_18_cap = 0                
include "gpdk045_moscap.scs"   section = moscap18
include "gpdk045_moscap.scs"   section = s1p8v_mac
endsection  fscap_18

section  sfcap_18
parameters
+tox_n_18_cap = 3.62E-9            dxl_n_18_cap = 0                  
+dxw_n_18_cap = 0                  dvth0_n_18_cap = 0.0166           dlvth0_n_18_cap = 1.44E-9         
+dwvth0_n_18_cap = 3.2E-9          dpvth0_n_18_cap = 1.507E-16       du0_n_18_cap = -9.72E-4           
+dlu0_n_18_cap = -9E-11            dwu0_n_18_cap = -2.08E-10         dpu0_n_18_cap = -1.7E-17          
+dvsat_n_18_cap = 0                dcj_n_18_cap = 5.55E-5            dcjsw_n_18_cap = 6.732E-12        
+dcjswg_n_18_cap = 7.92E-12        dcgso_n_18_cap = 0                dcgdo_n_18_cap = 0                
+dcgsl_n_18_cap = 0                dcgdl_n_18_cap = 0                
+tox_p_18_cap = 3.62E-9            dxl_p_18_cap = 0                  dxw_p_18_cap = 0                  
+dvth0_p_18_cap = 0.01797          dlvth0_p_18_cap = 2.22E-9         dwvth0_p_18_cap = 1.3E-9          
+dpvth0_p_18_cap = -4E-17          du0_p_18_cap = 7.4E-4             dlu0_p_18_cap = -2.9E-11          
+dwu0_p_18_cap = 1.158E-10         dpu0_p_18_cap = 3.744E-17         dvsat_p_18_cap = 0                
+dcj_p_18_cap = -6.402E-5          dcjsw_p_18_cap = -7.26E-12        dcjswg_p_18_cap = -1.518E-11      
+dcgso_p_18_cap = 0                dcgdo_p_18_cap = 0                dcgsl_p_18_cap = 0                
+dcgdl_p_18_cap = 0                
include "gpdk045_moscap.scs"   section = moscap18
include "gpdk045_moscap.scs"   section = s1p8v_mac
endsection  sfcap_18

section mccap_18
parameters
+random13_cap = 0                   random14_cap = 0                   random15_cap = 0                   
+random16_cap = 0  
statistics {
    process {
 
        vary random13_cap dist=gauss std=1/1
        vary random14_cap dist=gauss std=1/1
        vary random15_cap dist=gauss std=1/1
        vary random16_cap dist=gauss std=1/1                              
        }
    }                  
parameters
+a13_cap = random13_cap                  a14_cap = random14_cap                  
+a15_cap = random15_cap                  a16_cap = random16_cap 
+tox_n_18_cap = 3.62e-9-4.216e-13*a13_cap-4.118364e-11*a14_cap-6.633e-13*a15_cap+1.186255e-11*a16_cap 
+dxl_n_18_cap = 0-5.0716e-10*a13_cap-2.88e-9*a14_cap-3.3158e-10*a15_cap+5.5e-10*a16_cap 
+dxw_n_18_cap = 0+2.81955e-10*a13_cap+2e-9*a14_cap-9.5e-10*a15_cap-2.0444e-9*a16_cap 
+dvth0_n_18_cap = 0-6.3e-3*a13_cap-5.19e-3*a14_cap+7.3164e-3*a15_cap+3.8623e-3*a16_cap 
+dlvth0_n_18_cap = 0-9.0589e-10*a13_cap-1.046e-9*a14_cap+2.4158e-10*a15_cap-7.5252e-11*a16_cap 
+dwvth0_n_18_cap = 0-7.9703e-10*a13_cap-2.49e-10*a14_cap+1.57373e-9*a15_cap+1.33967e-9*a16_cap 
+dpvth0_n_18_cap = 0-1.8e-18*a13_cap+1.04786e-16*a14_cap+2.49e-16*a15_cap+2.8e-17*a16_cap 
+du0_n_18_cap = 0+6.12e-4*a13_cap+9.8e-5*a14_cap-1.26e-4*a15_cap+2.8e-17*a16_cap 
+dlu0_n_18_cap = 0-9.834e-11*a13_cap+3e-13*a14_cap+8.8e-12*a15_cap+2e-11*a16_cap 
+dwu0_n_18_cap = 0+6.73e-11*a13_cap+8e-12*a14_cap-3.62e-11*a15_cap-3e-12*a16_cap 
+dpu0_n_18_cap = 0+5e-19*a13_cap-9.14e-18*a14_cap-2.93e-17*a15_cap-9.4e-19*a16_cap 
+dvsat_n_18_cap = 0+0*a13_cap+0*a14_cap+0*a15_cap+0*a16_cap 
+dcgso_n_18_cap = -0.02167*(-4.216e-13*a13_cap-4.118364e-11*a14_cap-6.633e-13*a15_cap+1.186255e-11*a16_cap) 
+dcgdo_n_18_cap = -0.02167*(-4.216e-13*a13_cap-4.118364e-11*a14_cap-6.633e-13*a15_cap+1.186255e-11*a16_cap) 
+dcgsl_n_18_cap = -0.01876*(-4.216e-13*a13_cap-4.118364e-11*a14_cap-6.633e-13*a15_cap+1.186255e-11*a16_cap) 
+dcgdl_n_18_cap = -0.01876*(-4.216e-13*a13_cap-4.118364e-11*a14_cap-6.633e-13*a15_cap+1.186255e-11*a16_cap) 
+dcj_n_18_cap = 1.1e-5*a13_cap-5.1e-6*a14_cap-1.293e-5*a15_cap+1.34e-6*a16_cap 
+dcjsw_n_18_cap = 1.2126e-7*(1.1e-5*a13_cap-5.1e-6*a14_cap-1.293e-5*a15_cap+1.34e-6*a16_cap) 
+dcjswg_n_18_cap = 1.426e-7*(1.1e-5*a13_cap-5.1e-6*a14_cap-1.293e-5*a15_cap+1.34e-6*a16_cap) 
+tox_p_18_cap = 3.62e-9-6.528e-13*a13_cap-4.04702e-11*a14_cap-5.1e-13*a15_cap-1.038546e-11*a16_cap 
+dxl_p_18_cap = 0-3.1e-11*a13_cap-2.928e-9*a14_cap-6.744e-11*a15_cap+3.774e-10*a16_cap 
+dxw_p_18_cap = 0+1.8797e-10*a13_cap+2.5e-9*a14_cap-1.437e-9*a15_cap-2.3e-10*a16_cap 
+dvth0_p_18_cap = 0+0.0114*a13_cap-4.9519e-3*a14_cap+5.64e-3*a15_cap+3.8623e-3*a16_cap 
+dlvth0_p_18_cap = 0-1.0589e-10*a13_cap-1.35e-9*a14_cap+2.4158e-10*a15_cap-7.5252e-11*a16_cap 
+dwvth0_p_18_cap = 0-1.703e-10*a13_cap+3.39e-11*a14_cap+1.63e-9*a15_cap+3.3967e-10*a16_cap 
+dpvth0_p_18_cap = 0-1.58e-17*a13_cap+1.5986e-17*a14_cap+2.949e-16*a15_cap+2.8e-17*a16_cap 
+du0_p_18_cap = 0+2.4e-4*a13_cap-3.3e-4*a14_cap+2.86e-5*a15_cap+2.8e-17*a16_cap 
+dlu0_p_18_cap = 0+9.1e-12*a13_cap-2.7e-11*a14_cap+1.88e-11*a15_cap+4.8e-11*a16_cap 
+dwu0_p_18_cap = 0+8.26e-11*a13_cap-7.02e-11*a14_cap+1.3e-10*a15_cap-3e-12*a16_cap 
+dpu0_p_18_cap = 0+8.7e-18*a13_cap+8.4e-19*a14_cap-1.41e-18*a15_cap-4.94e-18*a16_cap 
+dvsat_p_18_cap = 0+0*a13_cap+0*a14_cap+0*a15_cap+0*a16_cap 
+dcgso_p_18_cap = -0.01535*(-6.528e-13*a13_cap-4.04702e-11*a14_cap-5.1e-13*a15_cap-1.038546e-11*a16_cap) 
+dcgdo_p_18_cap = -0.01535*(-6.528e-13*a13_cap-4.04702e-11*a14_cap-5.1e-13*a15_cap-1.038546e-11*a16_cap) 
+dcgsl_p_18_cap = -0.0699*(-6.528e-13*a13_cap-4.04702e-11*a14_cap-5.1e-13*a15_cap-1.038546e-11*a16_cap) 
+dcgdl_p_18_cap = -0.0699*(-6.528e-13*a13_cap-4.04702e-11*a14_cap-5.1e-13*a15_cap-1.038546e-11*a16_cap) 
+dcj_p_18_cap = 1.3e-5*a13_cap-5.3e-6*a14_cap-1.493e-5*a15_cap+3.7e-7*a16_cap 
+dcjsw_p_18_cap = 1.1336e-7*(1.3e-5*a13_cap-5.3e-6*a14_cap-1.493e-5*a15_cap+3.7e-7*a16_cap) 
+dcjswg_p_18_cap = 2.371e-7*(1.3e-5*a13_cap-5.3e-6*a14_cap-1.493e-5*a15_cap+3.7e-7*a16_cap)
include "gpdk045_moscap.scs"   section = moscap18
include "gpdk045_moscap.scs"   section = s1p8v_mac
endsection mccap_18



section moscap         
model nch_mac bsim4 {
1:type=n  minr=1e-60
//*** flag parameter ***
+version = 4.3                 binunit = 2                   mobmod = 0                    
+capmod = 2                    rdsmod = 0                    igcmod = 1                    
+igbmod = 1                    rbodymod = 0                  trnqsmod = 0                  
+acnqsmod = 0                  fnoimod = 1                   tnoimod = 0                   
+diomod = 1                    tempmod = 0                   permod = 1                    
+rgatemod = 0                  wpemod = 1                                   
//*** geometry range parameter ***
+lmin = 2E-6                   lmax = 1E-5                   wmin = 2E-6                   
+wmax = 1E-5                   
//*** process parameter ***
+epsrox = 3.9                  toxe = tox_n_cap                  toxm = tox_n_cap                  
+dtox = 3.15E-10               xj = 8.1E-8                   ndep = 1E17                   
+ngate = 1.6E20                nsd = 1E20                    rsh = 17.5                    
+rshg = 15.5                   
//*** dw and dl parameter ***
+wint = 2E-9                   wl = 0                        wln = 1                       
+ww = 0                        wwn = 1                       wwl = 0                       
+lint = 1E-9                   ll = 0                        lln = 1                       
+lw = 0                        lwn = 1                       lwl = 0                       
+llc = 0                       lwc = 0                       lwlc = 0                      
+wlc = 0                       wwc = 0                       wwlc = 0                      
+dwg = 0                       dwb = 0                       xl = 0.0+dxl_n_cap                
+xw = 0.0+dxw_n_cap                
//*** flicker noise model parameter ***
+noia = 2.6E42                 noib = 1.61E21                noic = 3E8                    
+em = 1E6                      ef = 0.94                     lintnoi = -5E-9               
//***layout-dependent parasitics model parameter ***
+dmcg = 4E-8                   dmci = 4E-8                   dmdg = 0                      
+dmcgt = 0                     dwj = 0                       xgw = 0                       
+xgl = 0                       ngcon = 1                     
//*** vth related  parameter ***
+vth0 = 0.34925+dvth0_n_cap        lvth0 = 0.0+dlvth0_n_cap          wvth0 = 0.0+dwvth0_n_cap          
+pvth0 = 0.0+dpvth0_n_cap          phin = 0                      k1 = 0.30264                  
+k2 = -0.012135                k3 = -7.284535                k3b = 2.454986                
+w0 = 8.190018E-8              lpe0 = 6.610138E-8            lpeb = 2.000404E-8            
+dvtp0 = 2.36094E-6            dvtp1 = 4.5                   dvt0 = 0.236381               
+dvt1 = 0.537442               dvt2 = 5.56679E-2             dvt0w = 0                     
+dvt1w = 0                     dvt2w = 0                     vfbsdoff = 0.02               
//*** mobility related parameter ***
+u0 = 0.0152801+du0_n_cap          lu0 = -2.636545E-10+dlu0_n_cap    wu0 = -3.215249E-10+dwu0_n_cap    
+pu0 = 7.659855E-16+dpu0_n_cap     ua = -1.9203E-9               lua = -9.059977E-18           
+wua = 1.401586E-17            pua = -4.284537E-24           ub = 2.276039E-18             
+lub = -2.737235E-26           wub = -4.319124E-26           pub = 9.846961E-32            
+uc = 7.443076E-11             luc = -1.669235E-17           wuc = -1.649254E-17           
+puc = 3.331794E-23            ud = 0                        vsat = 137107.0+dvsat_n_cap       
+lvsat = 0                     wvsat = 0                     pvsat = 0                     
+a0 = 1.930529                 la0 = -2.066163E-6            ags = 1.062652                
+lags = 8.605063E-7            b0 = 0                        b1 = 0                        
+keta = -6.63214E-2            lketa = 4.616804E-8           wketa = 7.781602E-10          
+pketa = -7.780046E-15         a1 = 0                        a2 = 1                        
+rdsw = 100.002354             prwb = 0                      prwg = 0                      
+wr = 1                        
//*** subthreshold related parameter ***
+voff = -0.15529               lvoff = 2.424242E-9           wvoff = 3.082726E-9           
+pvoff = -4.838786E-15         voffl = -3.595178E-9          minv = -0.15                  
+nfactor = 0.980741            lnfactor = 2.278475E-7        wnfactor = 2.101514E-7        
+pnfactor = -4.547836E-13      eta0 = 2.963491E-3            etab = -1.59363E-2            
+dsub = 0.422235               cit = 7.212E-4                cdsc = 0                      
+cdscb = 0                     cdscd = 0                     
//*** output resistance related parameter ***
+pclm = 1.441266               pdiblc1 = 4.53031E-4          pdiblc2 = 8.652665E-3         
+lpdiblc2 = -1.102969E-9       wpdiblc2 = 2.236938E-11       ppdiblc2 = -2.236491E-16      
+pdiblcb = 1                   drout = 0.56                  pscbe1 = 1E9                  
+pscbe2 = 1E-20                pvag = 1.2                    delta = 7.595625E-3           
+fprout = 300                  pdits = 0                     pditsl = 0                    
+pditsd = 0                    alpha0 = 2E-10                alpha1 = 0.01                 
+beta0 = 6.4                   agidl = 2.1505E-7             bgidl = 2.1392E9              
+cgidl = 0.22                  egidl = 0.29734               
//*** gate dielectric tunneling current ***
+aigbacc = 0.02                bigbacc = 2.47E-3             cigbacc = 0.3325              